 
#==============================================================================
data_global
#==============================================================================
 
# SUBMISSION DETAILS

_publ_contact_author_name
;
Prof. Dr. Wolfang Schnick
;

_publ_contact_author_address
; 
Ludwig-Maximilians-Universit\"at
Butenandtstrasse 5-13 (D)
D-81377 M\"unchen 
Germany
;

_publ_contact_author_email           wolfgang.schnick@uni-muenchen.de
_publ_contact_author_fax             +49-(0)89-2180-77876
_publ_contact_author_phone           +49-(0)89-2180-77439

_publ_requested_journal           '?'


#=======================================================================

# TITLE AND AUTHOR LIST
 
_publ_section_title
;
??????
;

_publ_section_abstract 'No abstract given'
 
loop_
_publ_author_name
_publ_author_address

'Dialer, Marwin'
;
Ludwig-Maximilians-Universit\"at M\"unchen,
Butenandtstrasse 5-13 (D), D-81377 M\"unchen, Germany
; 

'Schnick, Wolfgang'
;
Ludwig-Maximilians-Universit\"at M\"unchen,
Butenandtstrasse 5-13 (D), D-81377 M\"unchen, Germany
;

#=======================================================================   
data_SrSi2PN5
 
_audit_creation_method            'SHELXL-2016/6'
_shelx_SHELXL_version_number      '2016/6'
_chemical_name_systematic         ?
_chemical_name_common             ?
_chemical_melting_point           ?
_chemical_formula_moiety          ?
_chemical_formula_sum
 'N5 P Si2 Sr' 
_chemical_formula_weight          244.82

loop_
 _atom_type_symbol
 _atom_type_description
 _atom_type_scat_dispersion_real
 _atom_type_scat_dispersion_imag
 _atom_type_scat_source
 'N'  'N'   0.0061   0.0033
 'International Tables Vol C Tables 4.2.6.8 and 6.1.1.4'
 'Si'  'Si'   0.0817   0.0704
 'International Tables Vol C Tables 4.2.6.8 and 6.1.1.4'
 'P'  'P'   0.1023   0.0942
 'International Tables Vol C Tables 4.2.6.8 and 6.1.1.4'
 'Sr'  'Sr'  -1.5307   3.2498
 'International Tables Vol C Tables 4.2.6.8 and 6.1.1.4'
 
_space_group_crystal_system       orthorhombic
_space_group_IT_number            19
_space_group_name_H-M_alt         'P 21 21 21'
_space_group_name_Hall            'P 2ac 2ab'
 
_shelx_space_group_comment
;
The symmetry employed for this shelxl refinement is uniquely defined
by the following loop, which should always be used as a source of
symmetry information in preference to the above space-group names.
They are only intended as comments.
;
 
loop_
 _space_group_symop_operation_xyz
 'x, y, z'
 '-x+1/2, -y, z+1/2'
 '-x, y+1/2, -z+1/2'
 'x+1/2, -y+1/2, -z'
 
_cell_length_a                    4.84640(10)
_cell_length_b                    7.7480(3)
_cell_length_c                    11.4066(3)
_cell_angle_alpha                 90
_cell_angle_beta                  90
_cell_angle_gamma                 90
_cell_volume                      428.32(2)
_cell_formula_units_Z             4
_cell_measurement_temperature     296(2)
_cell_measurement_reflns_used     3424
_cell_measurement_theta_min       6.356
_cell_measurement_theta_max       71.01
 
_exptl_crystal_description        'block'
_exptl_crystal_colour             'colorless'
_exptl_crystal_density_diffrn     3.797          
_exptl_crystal_F_000              464
_exptl_crystal_size_max           0.010
_exptl_crystal_size_mid           0.010
_exptl_crystal_size_min           0.010
_exptl_absorpt_coefficient_mu     13.381
_exptl_absorpt_correction_type    Multi-Scan
_exptl_absorpt_correction_T_min   0.864
_exptl_absorpt_correction_T_max   1.000
_exptl_absorpt_process_details    'SADABS-2016/2 - Bruker AXS area detector scaling and absorption correction'
_exptl_absorpt_special_details    ?
_diffrn_ambient_temperature       296(2)
_diffrn_radiation_wavelength      0.71073
_diffrn_radiation_type            MoK\a
_diffrn_source                    'rotating anode generator'  
_diffrn_measurement_device_type   'D8 Venture' 
_diffrn_measurement_method        'omega scans'
_diffrn_reflns_number             7129
_diffrn_reflns_av_unetI/netI      0.0363
_diffrn_reflns_av_R_equivalents   0.0437
_diffrn_reflns_limit_h_min        -6
_diffrn_reflns_limit_h_max        6
_diffrn_reflns_limit_k_min        -11
_diffrn_reflns_limit_k_max        11
_diffrn_reflns_limit_l_min        -16
_diffrn_reflns_limit_l_max        15
_diffrn_reflns_theta_min          3.178
_diffrn_reflns_theta_max          30.507
_diffrn_reflns_theta_full         25.242
_diffrn_measured_fraction_theta_max   1.000
_diffrn_measured_fraction_theta_full  1.000
_diffrn_reflns_Laue_measured_fraction_max    1.000
_diffrn_reflns_Laue_measured_fraction_full   1.000
_diffrn_reflns_point_group_measured_fraction_max   1.000
_diffrn_reflns_point_group_measured_fraction_full  1.000
_reflns_number_total              1297
_reflns_number_gt                 1186
_reflns_threshold_expression      'I > 2\s(I)'
_reflns_Friedel_coverage          0.655
_reflns_Friedel_fraction_max      1.000
_reflns_Friedel_fraction_full     1.000
 
_reflns_special_details
;
 Reflections were merged by SHELXL according to the crystal
 class for the calculation of statistics and refinement.
 
 _reflns_Friedel_fraction is defined as the number of unique
 Friedel pairs measured divided by the number that would be
 possible theoretically, ignoring centric projections and
 systematic absences.
;
 
_computing_data_collection        'BRUKER APEX 4'
_computing_cell_refinement        'BRUKER APEX 4'
_computing_data_reduction         'BRUKER APEX 4'
_computing_structure_solution     'SHELXT 2014/5 (Sheldrick, 2014)'
_computing_structure_refinement 'SHELXL-2016/6 (Sheldrick, 2016)'
_computing_molecular_graphics     ?
_computing_publication_material   ?
_refine_special_details
;
 Refined as a 2-component inversion twin.
;
_refine_ls_structure_factor_coef  Fsqd
_refine_ls_matrix_type            full
_refine_ls_weighting_scheme       calc
_refine_ls_weighting_details
'w=1/[\s^2^(Fo^2^)+2.1706P] where P=(Fo^2^+2Fc^2^)/3'
_atom_sites_solution_primary      ?
_atom_sites_solution_secondary    ?
_atom_sites_solution_hydrogens    .
_refine_ls_hydrogen_treatment     undef
_refine_ls_extinction_method      none
_refine_ls_extinction_coef        .
_refine_ls_abs_structure_details
;
 Refined as an inversion twin.
;
_refine_ls_abs_structure_Flack    0.11(2)
_chemical_absolute_configuration  ?
_refine_ls_number_reflns          1297
_refine_ls_number_parameters      83
_refine_ls_number_restraints      0
_refine_ls_R_factor_all           0.0377
_refine_ls_R_factor_gt            0.0325
_refine_ls_wR_factor_ref          0.0589
_refine_ls_wR_factor_gt           0.0577
_refine_ls_goodness_of_fit_ref    1.105
_refine_ls_restrained_S_all       1.105
_refine_ls_shift/su_max           0.000
_refine_ls_shift/su_mean          0.000
 
loop_
 _atom_site_label
 _atom_site_type_symbol
 _atom_site_fract_x
 _atom_site_fract_y
 _atom_site_fract_z
 _atom_site_U_iso_or_equiv
 _atom_site_adp_type
 _atom_site_occupancy
 _atom_site_site_symmetry_order  
 _atom_site_calc_flag
 _atom_site_refinement_flags_posn
 _atom_site_refinement_flags_adp
 _atom_site_refinement_flags_occupancy
 _atom_site_disorder_assembly
 _atom_site_disorder_group
Sr1 Sr 0.49385(18) 0.54403(7) 0.66651(4) 0.01125(13) Uani 1 1 d . . . . .
P1 P 0.4953(5) 0.16917(16) 0.15686(12) 0.0074(2) Uani 1 1 d . . . . .
Si2 Si 0.5097(5) 0.46669(18) -0.04274(12) 0.0054(3) Uani 1 1 d . . . . .
Si3 Si 0.5230(4) 0.29725(19) 0.41623(13) 0.0038(3) Uani 1 1 d . . . . .
N1 N 0.5383(11) 0.3459(6) 0.0766(4) 0.0064(10) Uani 1 1 d . . . . .
N2 N 0.6241(11) 0.2106(7) 0.2897(5) 0.0102(11) Uani 1 1 d . . . . .
N3 N 0.1631(10) 0.1182(7) 0.1601(5) 0.0071(9) Uani 1 1 d . . . . .
N4 N 0.1683(10) 0.5073(6) -0.0886(5) 0.0059(10) Uani 1 1 d . . . . .
N5 N 0.8241(11) 0.3420(7) 0.4979(5) 0.0062(9) Uani 1 1 d . . . . .
 
loop_
 _atom_site_aniso_label
 _atom_site_aniso_U_11
 _atom_site_aniso_U_22
 _atom_site_aniso_U_33
 _atom_site_aniso_U_23
 _atom_site_aniso_U_13
 _atom_site_aniso_U_12
Sr1 0.0134(3) 0.0102(2) 0.0101(2) 0.0023(2) -0.0003(4) -0.0007(4)
P1 0.0072(6) 0.0068(5) 0.0081(6) -0.0003(5) 0.0000(9) 0.0005(9)
Si2 0.0037(6) 0.0047(5) 0.0078(6) 0.0000(5) -0.0009(9) 0.0000(10)
Si3 0.0026(7) 0.0037(6) 0.0051(6) 0.0004(5) 0.0009(8) 0.0006(8)
N1 0.003(3) 0.0056(19) 0.011(2) 0.0059(17) -0.001(2) -0.0003(18)
N2 0.012(3) 0.011(3) 0.008(2) -0.005(2) -0.001(2) 0.003(2)
N3 0.004(2) 0.013(2) 0.005(2) -0.002(2) 0.0008(18) -0.0016(19)
N4 0.005(2) 0.003(2) 0.010(2) -0.0013(18) -0.0027(19) 0.0000(17)
N5 0.007(2) 0.005(2) 0.007(2) 0.0003(19) -0.0014(18) 0.0000(17)
 
_geom_special_details
;
 All esds (except the esd in the dihedral angle between two l.s. planes)
 are estimated using the full covariance matrix.  The cell esds are taken
 into account individually in the estimation of esds in distances, angles
 and torsion angles; correlations between esds in cell parameters are only
 used when they are defined by crystal symmetry.  An approximate (isotropic)
 treatment of cell esds is used for estimating esds involving l.s. planes.
;
 
loop_
 _geom_bond_atom_site_label_1
 _geom_bond_atom_site_label_2
 _geom_bond_distance
 _geom_bond_site_symmetry_2
 _geom_bond_publ_flag
Sr1 N3 2.483(5) 4_556 ?
Sr1 N1 2.631(5) 2_665 ?
Sr1 N2 2.712(6) 4_456 ?
Sr1 N3 2.726(5) 2_565 ?
Sr1 N1 2.903(5) 2_565 ?
Sr1 N5 2.951(5) . ?
Sr1 N2 3.003(6) 2_665 ?
Sr1 N4 3.041(5) 2_565 ?
Sr1 N4 3.220(5) 1_556 ?
Sr1 P1 3.251(2) 2_565 ?
Sr1 P1 3.329(2) 2_665 ?
Sr1 Si2 3.3711(14) 1_556 ?
P1 N3 1.658(5) . ?
P1 N1 1.661(5) . ?
P1 N2 1.670(6) . ?
P1 N4 1.783(5) 4 ?
Si2 N1 1.657(5) . ?
Si2 N3 1.667(6) 4 ?
Si2 N5 1.749(5) 2_664 ?
Si2 N4 1.764(5) . ?
Si3 N2 1.665(6) . ?
Si3 N5 1.747(5) 4_456 ?
Si3 N5 1.766(5) . ?
Si3 N4 1.776(5) 2_565 ?
 
loop_
 _geom_angle_atom_site_label_1
 _geom_angle_atom_site_label_2
 _geom_angle_atom_site_label_3
 _geom_angle
 _geom_angle_site_symmetry_1
 _geom_angle_site_symmetry_3
 _geom_angle_publ_flag
N3 Sr1 N1 100.95(16) 4_556 2_665 ?
N3 Sr1 N2 72.74(17) 4_556 4_456 ?
N1 Sr1 N2 151.30(16) 2_665 4_456 ?
N3 Sr1 N3 126.84(12) 4_556 2_565 ?
N1 Sr1 N3 85.35(15) 2_665 2_565 ?
N2 Sr1 N3 121.27(16) 4_456 2_565 ?
N3 Sr1 N1 136.34(16) 4_556 2_565 ?
N1 Sr1 N1 122.19(18) 2_665 2_565 ?
N2 Sr1 N1 72.04(15) 4_456 2_565 ?
N3 Sr1 N1 57.38(14) 2_565 2_565 ?
N3 Sr1 N5 94.09(16) 4_556 . ?
N1 Sr1 N5 56.65(14) 2_665 . ?
N2 Sr1 N5 95.31(15) 4_456 . ?
N3 Sr1 N5 130.01(15) 2_565 . ?
N1 Sr1 N5 114.03(14) 2_565 . ?
N3 Sr1 N2 75.17(16) 4_556 2_665 ?
N1 Sr1 N2 56.35(15) 2_665 2_665 ?
N2 Sr1 N2 141.44(6) 4_456 2_665 ?
N3 Sr1 N2 64.98(15) 2_565 2_665 ?
N1 Sr1 N2 121.82(14) 2_565 2_665 ?
N5 Sr1 N2 107.83(15) . 2_665 ?
N3 Sr1 N4 141.39(15) 4_556 2_565 ?
N1 Sr1 N4 83.80(14) 2_665 2_565 ?
N2 Sr1 N4 84.84(15) 4_456 2_565 ?
N3 Sr1 N4 91.60(14) 2_565 2_565 ?
N1 Sr1 N4 58.04(13) 2_565 2_565 ?
N5 Sr1 N4 56.43(13) . 2_565 ?
N2 Sr1 N4 133.65(14) 2_665 2_565 ?
N3 Sr1 N4 54.99(15) 4_556 1_556 ?
N1 Sr1 N4 142.10(14) 2_665 1_556 ?
N2 Sr1 N4 56.80(14) 4_456 1_556 ?
N3 Sr1 N4 88.35(14) 2_565 1_556 ?
N1 Sr1 N4 84.10(13) 2_565 1_556 ?
N5 Sr1 N4 141.63(13) . 1_556 ?
N2 Sr1 N4 87.25(14) 2_665 1_556 ?
N4 Sr1 N4 133.78(4) 2_565 1_556 ?
N3 Sr1 P1 127.87(12) 4_556 2_565 ?
N1 Sr1 P1 113.19(11) 2_665 2_565 ?
N2 Sr1 P1 91.24(13) 4_456 2_565 ?
N3 Sr1 P1 30.63(11) 2_565 2_565 ?
N1 Sr1 P1 30.65(10) 2_565 2_565 ?
N5 Sr1 P1 137.38(11) . 2_565 ?
N2 Sr1 P1 91.88(11) 2_665 2_565 ?
N4 Sr1 P1 82.45(10) 2_565 2_565 ?
N4 Sr1 P1 74.48(9) 1_556 2_565 ?
N3 Sr1 P1 96.82(12) 4_556 2_665 ?
N1 Sr1 P1 29.50(10) 2_665 2_665 ?
N2 Sr1 P1 169.53(12) 4_456 2_665 ?
N3 Sr1 P1 64.27(11) 2_565 2_665 ?
N1 Sr1 P1 116.94(10) 2_565 2_665 ?
N5 Sr1 P1 85.93(10) . 2_665 ?
N2 Sr1 P1 30.03(11) 2_665 2_665 ?
N4 Sr1 P1 104.36(10) 2_565 2_665 ?
N4 Sr1 P1 116.87(9) 1_556 2_665 ?
P1 Sr1 P1 94.87(3) 2_565 2_665 ?
N3 Sr1 Si2 28.22(12) 4_556 1_556 ?
N1 Sr1 Si2 114.94(12) 2_665 1_556 ?
N2 Sr1 Si2 72.82(12) 4_456 1_556 ?
N3 Sr1 Si2 101.73(12) 2_565 1_556 ?
N1 Sr1 Si2 114.83(11) 2_565 1_556 ?
N5 Sr1 Si2 122.31(11) . 1_556 ?
N2 Sr1 Si2 68.78(11) 2_665 1_556 ?
N4 Sr1 Si2 157.55(10) 2_565 1_556 ?
N4 Sr1 Si2 30.93(10) 1_556 1_556 ?
P1 Sr1 Si2 99.87(4) 2_565 1_556 ?
P1 Sr1 Si2 97.72(4) 2_665 1_556 ?
N3 P1 N1 109.3(3) . . ?
N3 P1 N2 112.9(3) . . ?
N1 P1 N2 107.1(3) . . ?
N3 P1 N4 106.5(3) . 4 ?
N1 P1 N4 109.4(3) . 4 ?
N2 P1 N4 111.6(3) . 4 ?
N3 P1 Sr1 56.90(19) . 2_564 ?
N1 P1 Sr1 63.03(19) . 2_564 ?
N2 P1 Sr1 96.3(2) . 2_564 ?
N4 P1 Sr1 151.88(19) 4 2_564 ?
N3 P1 Sr1 151.69(19) . 2_664 ?
N1 P1 Sr1 51.27(19) . 2_664 ?
N2 P1 Sr1 64.1(2) . 2_664 ?
N4 P1 Sr1 100.17(18) 4 2_664 ?
Sr1 P1 Sr1 94.87(3) 2_564 2_664 ?
N3 P1 Sr1 122.48(19) . 4_556 ?
N1 P1 Sr1 127.6(2) . 4_556 ?
N2 P1 Sr1 47.2(2) . 4_556 ?
N4 P1 Sr1 64.60(18) 4 4_556 ?
Sr1 P1 Sr1 142.60(4) 2_564 4_556 ?
Sr1 P1 Sr1 77.63(5) 2_664 4_556 ?
N3 P1 Sr1 38.25(19) . 4_456 ?
N1 P1 Sr1 141.2(2) . 4_456 ?
N2 P1 Sr1 80.3(2) . 4_456 ?
N4 P1 Sr1 102.24(17) 4 4_456 ?
Sr1 P1 Sr1 78.49(5) 2_564 4_456 ?
Sr1 P1 Sr1 142.95(4) 2_664 4_456 ?
Sr1 P1 Sr1 85.85(3) 4_556 4_456 ?
N1 Si2 N3 113.5(3) . 4 ?
N1 Si2 N5 102.8(3) . 2_664 ?
N3 Si2 N5 110.0(3) 4 2_664 ?
N1 Si2 N4 115.0(3) . . ?
N3 Si2 N4 104.5(3) 4 . ?
N5 Si2 N4 111.1(2) 2_664 . ?
N1 Si2 Sr1 155.53(19) . 1_554 ?
N3 Si2 Sr1 44.77(18) 4 1_554 ?
N5 Si2 Sr1 96.92(18) 2_664 1_554 ?
N4 Si2 Sr1 69.81(18) . 1_554 ?
N1 Si2 Sr1 49.35(19) . 2_664 ?
N3 Si2 Sr1 103.84(19) 4 2_664 ?
N5 Si2 Sr1 60.49(18) 2_664 2_664 ?
N4 Si2 Sr1 151.55(19) . 2_664 ?
Sr1 Si2 Sr1 135.49(7) 1_554 2_664 ?
N1 Si2 Sr1 58.13(19) . 2_564 ?
N3 Si2 Sr1 150.5(2) 4 2_564 ?
N5 Si2 Sr1 99.47(18) 2_664 2_564 ?
N4 Si2 Sr1 62.71(18) . 2_564 ?
Sr1 Si2 Sr1 132.52(7) 1_554 2_564 ?
Sr1 Si2 Sr1 90.83(3) 2_664 2_564 ?
N1 Si2 Sr1 78.88(18) . 3_645 ?
N3 Si2 Sr1 47.28(18) 4 3_645 ?
N5 Si2 Sr1 152.3(2) 2_664 3_645 ?
N4 Si2 Sr1 92.41(17) . 3_645 ?
Sr1 Si2 Sr1 76.92(3) 1_554 3_645 ?
Sr1 Si2 Sr1 105.05(5) 2_664 3_645 ?
Sr1 Si2 Sr1 104.53(5) 2_564 3_645 ?
N2 Si3 N5 113.5(3) . 4_456 ?
N2 Si3 N5 107.1(3) . . ?
N5 Si3 N5 106.35(14) 4_456 . ?
N2 Si3 N4 118.0(3) . 2_565 ?
N5 Si3 N4 104.8(3) 4_456 2_565 ?
N5 Si3 N4 106.3(2) . 2_565 ?
N2 Si3 Sr1 162.9(2) . . ?
N5 Si3 Sr1 81.68(18) 4_456 . ?
N5 Si3 Sr1 59.12(17) . . ?
N4 Si3 Sr1 62.01(18) 2_565 . ?
N2 Si3 Sr1 45.1(2) . 4_556 ?
N5 Si3 Sr1 92.45(18) 4_456 4_556 ?
N5 Si3 Sr1 76.11(18) . 4_556 ?
N4 Si3 Sr1 160.74(18) 2_565 4_556 ?
Sr1 Si3 Sr1 130.46(5) . 4_556 ?
N2 Si3 Sr1 72.7(2) . 4_456 ?
N5 Si3 Sr1 48.51(18) 4_456 4_456 ?
N5 Si3 Sr1 145.58(18) . 4_456 ?
N4 Si3 Sr1 103.46(17) 2_565 4_456 ?
Sr1 Si3 Sr1 124.40(5) . 4_456 ?
Sr1 Si3 Sr1 81.51(3) 4_556 4_456 ?
Si2 N1 P1 155.2(4) . . ?
Si2 N1 Sr1 102.1(2) . 2_664 ?
P1 N1 Sr1 99.2(2) . 2_664 ?
Si2 N1 Sr1 92.9(2) . 2_564 ?
P1 N1 Sr1 86.3(2) . 2_564 ?
Sr1 N1 Sr1 122.19(18) 2_664 2_564 ?
Si3 N2 P1 138.9(4) . . ?
Si3 N2 Sr1 109.2(3) . 4_556 ?
P1 N2 Sr1 105.9(3) . 4_556 ?
Si3 N2 Sr1 109.4(3) . 2_664 ?
P1 N2 Sr1 85.8(2) . 2_664 ?
Sr1 N2 Sr1 98.00(17) 4_556 2_664 ?
P1 N3 Si2 120.6(3) . 4_455 ?
P1 N3 Sr1 117.3(3) . 4_456 ?
Si2 N3 Sr1 107.0(2) 4_455 4_456 ?
P1 N3 Sr1 92.5(2) . 2_564 ?
Si2 N3 Sr1 106.0(2) 4_455 2_564 ?
Sr1 N3 Sr1 111.88(19) 4_456 2_564 ?
Si2 N4 Si3 129.2(3) . 2_564 ?
Si2 N4 P1 115.7(3) . 4_455 ?
Si3 N4 P1 115.0(3) 2_564 4_455 ?
Si2 N4 Sr1 86.3(2) . 2_564 ?
Si3 N4 Sr1 86.9(2) 2_564 2_564 ?
P1 N4 Sr1 101.3(2) 4_455 2_564 ?
Si2 N4 Sr1 79.26(18) . 1_554 ?
Si3 N4 Sr1 102.0(2) 2_564 1_554 ?
P1 N4 Sr1 85.39(19) 4_455 1_554 ?
Sr1 N4 Sr1 165.53(18) 2_564 1_554 ?
Si3 N5 Si2 114.7(3) 4_556 2_665 ?
Si3 N5 Si3 129.1(3) 4_556 . ?
Si2 N5 Si3 114.0(3) 2_665 . ?
Si3 N5 Sr1 105.2(2) 4_556 . ?
Si2 N5 Sr1 88.5(2) 2_665 . ?
Si3 N5 Sr1 90.0(2) . . ?
 
_refine_diff_density_max    0.558
_refine_diff_density_min   -1.048
_refine_diff_density_rms    0.166

_shelx_res_file
;
TITL shelxt_d.res in P2(1)2(1)2(1)
    shelx.res
    created by SHELXL-2016/6 at 10:26:22 on 24-Jan-2024
REM Old TITL R1_P212121 in P2(1)2(1)2(1)

REM SHELXT solution in P2(1)2(1)2(1)
REM R1 0.167,  Rweak 0.021,  Alpha 0.068,  Orientation as input
REM Flack x =  0.266 ( 0.016 ) from Parsons' quotients
REM Formula found by SHELXT:  N3 P3 Sr

CELL  0.71073   4.8464   7.7480  11.4066   90.000   90.000   90.000
ZERR    2.000   0.0001   0.0003   0.0003    0.000    0.000    0.000
LATT -1
SYMM 1/2-X, -Y, 1/2+Z
SYMM -X, 1/2+Y, 1/2-Z
SYMM 1/2+X, 1/2-Y, -Z
SFAC N SI P SR
UNIT 20 8 4 4
TEMP 23.350
L.S. 10
ACTA
LIST 3
FMAP 2
SHEL 0.7 9999
TWIN
PLAN 20

WGHT    0.000000    2.170600
BASF   0.11361
FVAR       0.48182
SR1   4    0.493847    0.544034    0.666506    11.00000    0.01341    0.01024 =
         0.01010    0.00226   -0.00030   -0.00075
P1    3    0.495274    0.169169    0.156858    11.00000    0.00717    0.00685 =
         0.00806   -0.00028   -0.00005    0.00052
SI2   2    0.509662    0.466690   -0.042738    11.00000    0.00367    0.00465 =
         0.00783    0.00001   -0.00093   -0.00002
SI3   2    0.523042    0.297254    0.416231    11.00000    0.00261    0.00366 =
         0.00509    0.00044    0.00089    0.00062
N1    1    0.538282    0.345945    0.076578    11.00000    0.00285    0.00564 =
         0.01068    0.00589   -0.00104   -0.00033
N2    1    0.624057    0.210644    0.289736    11.00000    0.01179    0.01106 =
         0.00765   -0.00525   -0.00106    0.00299
N3    1    0.163071    0.118239    0.160105    11.00000    0.00353    0.01321 =
         0.00457   -0.00204    0.00079   -0.00156
N4    1    0.168301    0.507349   -0.088649    11.00000    0.00461    0.00341 =
         0.00976   -0.00127   -0.00273   -0.00001
N5    1    0.824146    0.342034    0.497905    11.00000    0.00696    0.00464 =
         0.00702    0.00028   -0.00141    0.00000
HKLF 4




REM  shelxt_d.res in P2(1)2(1)2(1)
REM R1 =  0.0325 for    1186 Fo > 4sig(Fo)  and  0.0377 for all    1297 data
REM     83 parameters refined using      0 restraints

END

WGHT      0.0000      2.1704

REM Highest difference peak  0.558,  deepest hole -1.048,  1-sigma level  0.166
Q1    1   0.4837  0.2997  0.0311  11.00000  0.05    0.56
Q2    1   0.4370  0.3026  0.1041  11.00000  0.05    0.54
Q3    1   0.6333  0.3209  0.0805  11.00000  0.05    0.53
Q4    1   0.4992  0.3524  0.5207  11.00000  0.05    0.53
Q5    1   0.2986  0.1470  0.1592  11.00000  0.05    0.49
Q6    1   0.4884  0.3873  0.2612  11.00000  0.05    0.49
Q7    1   0.6922  0.3807  0.4984  11.00000  0.05    0.49
Q8    1   0.5096  0.1827  0.0573  11.00000  0.05    0.48
Q9    1   0.8719  0.2883  0.5481  11.00000  0.05    0.47
Q10   1   0.2013  0.6008 -0.0102  11.00000  0.05    0.47
Q11   1   0.6299  0.0337  0.2649  11.00000  0.05    0.46
Q12   1   0.5161  0.3986  0.0464  11.00000  0.05    0.46
Q13   1   0.1304  0.5453  0.6971  11.00000  0.05    0.46
Q14   1   0.0956  0.3473  0.0022  11.00000  0.05    0.44
Q15   1   0.9655  0.4548  0.5613  11.00000  0.05    0.43
Q16   1   0.5040  0.3927  0.1174  11.00000  0.05    0.43
Q17   1   0.4958  0.3370  0.1715  11.00000  0.05    0.42
Q18   1  -0.0038  0.5314 -0.1988  11.00000  0.05    0.42
Q19   1   0.4632  0.3120  0.3247  11.00000  0.05    0.42
Q20   1   0.2975  0.3179  0.4590  11.00000  0.05    0.41
;
_shelx_res_checksum   28963

_shelx_hkl_file
;
   1   0   0   -0.10    1.20
   1   0   0   -1.70    3.00
   1   0   0    2.20    2.30
  -1   0   0    0.50    1.20
  -1   0   0   -2.60    2.40
  -1   0   0   -0.60    2.30
   2   0   0 9987.30  322.17
  -2   0   0 9924.31  315.57
  -2   0   0 9999.00  318.97
  -3   0   0    3.00    2.40
  -3   0   0    3.10    2.00
  -3   0   0    0.20    5.10
  -3   0   0    7.00    5.30
   3   0   0   -0.40    4.70
  -4   0   0 3791.22  136.49
  -5   0   0   29.00   14.80
  -5   0   0   24.00   10.60
  -6   0   0 2649.03   99.59
  -6   0   0 2674.13  112.49
  -7   0   0    6.80   19.70
  -8   0   0  497.65   78.79
   0  -1   0   -3.90    1.40
   0   1   0    0.20    1.70
   0   1   0    0.70    1.70
   0  -1   0   -1.30    1.30
   0   1   0   -1.40    1.20
   0  -1   0   -1.80    1.10
  -1   1   0   18.90    4.80
  -1  -1   0   10.40    4.10
   1  -1   0   11.00    3.30
   1   1   0   21.00    3.10
   1   1   0   17.90    2.80
  -1   1   0   12.60    3.10
   1  -1   0   14.20    4.80
  -1   1   0   12.60    4.50
   1   1   0   14.90    4.00
  -1   1   0   16.10    3.10
  -1   1   0   22.00    4.90
  -1  -1   0   15.70    2.70
  -2   1   0  257.17   14.70
   2   1   0  268.87   11.90
  -2  -1   0  234.48   15.20
  -2   1   0  257.47   12.00
   2   1   0  269.87   10.40
  -2  -1   0  274.97   12.30
  -2   1   0  249.38   14.30
   2  -1   0  239.08   15.60
  -2   1   0  262.37   11.90
  -2  -1   0  263.17   10.10
  -3   1   0    5.60    3.30
   3  -1   0   13.00    7.30
  -3   1   0    0.00    6.50
   3   1   0    2.50    3.50
  -3  -1   0   13.00    7.60
  -3  -1   0    8.50    4.50
  -3   1   0    3.00    3.30
   4  -1   0  110.79   16.80
  -4  -1   0  140.69   12.70
  -4   1   0  125.09    8.10
  -4  -1   0  102.89   16.80
  -4   1   0  114.69    7.50
  -4   1   0  141.99   15.50
  -5   1   0   13.00   13.10
  -5   1   0   13.80   12.30
  -5  -1   0   11.20   13.60
  -5  -1   0   11.30   12.20
  -6  -1   0   18.30   18.10
  -6   1   0   24.30   18.40
  -6  -1   0   38.80   12.40
  -6   1   0   43.70   15.50
  -7  -1   0   -6.30   21.60
  -7   1   0  -18.20   16.00
  -7   1   0   22.10   21.90
  -8  -1   0   11.30   28.80
  -8   1   0   23.80   31.10
   0  -2   0 1275.17   44.00
   0   2   0 1235.48   43.80
   0  -2   0 1254.07   45.20
   0   2   0 1195.28   44.90
   0  -2   0 1280.67   49.40
   0   2   0 1229.38   43.80
   1   2   0  420.36   17.10
   1  -2   0  396.76   19.10
   1  -2   0  403.66   17.70
  -1   2   0  375.86   18.80
  -1   2   0  418.26   19.50
  -1   2   0  401.96   19.10
   1   2   0  389.16   16.00
  -1  -2   0  425.06   16.10
  -1  -2   0  412.86   19.20
  -1   2   0  401.06   17.80
   1   2   0  416.96   19.10
  -1  -2   0  396.06   16.70
  -2   2   0  835.62   35.00
   2   2   0  830.92   29.70
  -2  -2   0  858.21   36.00
  -2  -2   0  837.42   30.10
  -2   2   0  836.42   32.30
   2   2   0  840.62   30.50
   2  -2   0  813.52   35.70
  -2   2   0  843.02   32.40
  -2  -2   0  843.42   29.90
  -3   2   0  232.08   13.10
   3   2   0  239.18   11.80
  -3  -2   0  227.28   12.20
   3   2   0  242.28   10.80
  -3   2   0  231.78   13.40
   3  -2   0  243.78   19.20
  -3  -2   0  215.78   18.20
  -3  -2   0  228.38   10.20
  -3   2   0  224.18   17.80
  -4  -2   0  572.84   24.10
  -4   2   0  563.74   31.70
   4  -2   0  530.25   33.60
  -4   2   0  544.45   24.10
  -4  -2   0  527.15   33.00
  -5  -2   0  141.09   24.10
  -5   2   0  189.28   21.50
   5  -2   0  158.38   24.30
  -5   2   0  133.89   10.50
  -5  -2   0  146.39   12.70
  -5   2   0  120.69   10.00
  -6   2   0  282.57   29.40
  -6  -2   0  275.57   32.90
  -6   2   0  263.67   31.90
  -6  -2   0  245.58   16.80
  -7  -2   0   69.49   27.50
  -7   2   0   40.50   22.00
  -7   2   0  100.29   30.50
   0   3   0    2.30    5.00
   0   3   0    1.10    4.50
   0  -3   0    6.40    5.30
   0   3   0    3.10    3.90
   0  -3   0    1.70    4.00
  -1  -3   0  422.16   19.40
   1   3   0  412.26   19.40
  -1  -3   0  432.46   18.70
  -1   3   0  456.45   21.00
  -1  -3   0  427.46   22.20
  -1   3   0  416.36   21.60
   1  -3   0  432.66   22.00
   1  -3   0  453.65   22.50
   1   3   0  440.16   20.10
  -2  -3   0    0.80    3.50
  -2   3   0   10.00    5.00
   2   3   0   -5.50    3.80
   2  -3   0    0.00    6.30
  -2  -3   0   -3.40    5.60
  -2  -3   0   -1.10    3.20
  -2   3   0    4.00    7.10
   2   3   0    0.70    3.10
   3  -3   0   60.79   13.50
  -3  -3   0   42.10    6.10
   3   3   0   42.60    6.40
   3   3   0   44.40    5.70
  -3   3   0   69.79   13.20
  -3   3   0   47.60    8.50
  -3  -3   0   53.09    6.20
  -3  -3   0   59.89   13.20
   4  -3   0    6.30   11.40
   4   3   0    4.60    3.40
  -4   3   0   -6.60    9.40
  -4  -3   0    2.30   11.70
  -4  -3   0    4.70    4.40
   4   3   0    6.60    3.50
  -4   3   0   10.50    8.30
  -5  -3   0   14.70    5.00
  -5  -3   0   -3.10   12.60
  -5   3   0    2.00   14.30
  -5  -3   0   24.10    6.00
   5  -3   0    4.00   15.30
  -6   3   0   27.40   19.00
   6  -3   0   -6.20   19.40
  -6  -3   0   30.70   21.50
  -7   3   0  197.98   32.80
  -7  -3   0  161.08   33.50
  -7   3   0  227.68   39.40
   0  -4   0  568.74   26.90
   0  -4   0  626.84   30.10
  -1   4   0  715.23   33.20
   1   4   0  681.13   29.20
   1  -4   0  693.33   33.00
  -1   4   0  718.93   31.80
   1  -4   0  726.73   34.00
  -1  -4   0  692.83   33.40
  -1  -4   0  707.93   29.60
   1   4   0  688.73   30.90
  -2  -4   0  623.64   32.70
  -2   4   0  683.43   33.50
  -2   4   0  635.84   30.10
   2  -4   0  605.04   32.30
   2   4   0  624.34   25.90
  -2  -4   0  618.44   25.80
   2   4   0  672.33   29.00
   3   4   0  886.81   35.30
  -3   4   0  852.71   42.80
  -3  -4   0  837.92   31.40
   3  -4   0  842.22   42.90
  -3   4   0  877.71   38.30
   3   4   0  831.52   31.40
  -3  -4   0  828.52   42.20
  -4   4   0  237.48   25.40
  -4  -4   0  243.38   25.30
   4  -4   0  261.37   25.20
  -4   4   0  287.27   20.00
   4   4   0  252.27   15.00
   4   4   0  246.88   14.80
  -5   4   0  184.58   26.00
  -5   4   0  147.49   16.40
  -5  -4   0  185.98   28.30
   5  -4   0  128.89   25.30
  -6   4   0   91.39   16.60
  -6  -4   0  112.09   28.20
  -6   4   0  115.59   27.70
   6  -4   0   53.29   25.50
  -7   4   0   31.00   26.30
   7  -4   0   -8.90   22.40
  -7   4   0   11.60   29.70
  -7  -4   0   26.60   22.50
   0  -5   0   -2.40    6.90
   0   5   0    0.20    5.50
   0  -5   0    5.60    6.00
   1  -5   0   52.39   12.80
  -1  -5   0   57.69   13.20
  -1  -5   0   62.79   10.30
  -1   5   0   95.09   15.30
  -1   5   0   70.89   12.60
   1   5   0   73.59   12.00
  -2  -5   0   28.60   10.40
   2   5   0   20.50    8.30
  -2  -5   0   22.30    6.70
  -2   5   0   10.30    7.60
  -2   5   0   16.70   11.90
   2  -5   0   45.60   12.50
  -3  -5   0   30.70   13.20
   3   5   0   20.90    6.00
  -3   5   0   18.70    9.40
   3  -5   0   17.00   12.70
  -3  -5   0   18.60    5.90
   3   5   0    2.70    6.60
  -3   5   0   16.10   14.20
   4  -5   0   34.80   15.80
  -4  -5   0   12.30   15.30
  -4   5   0   10.30    8.80
  -4   5   0   33.30   17.70
  -5   5   0  177.58   18.70
  -5   5   0  164.38   26.70
  -5  -5   0  169.88   28.30
   5  -5   0  195.38   31.90
  -6   5   0   29.80   13.60
  -6   5   0   42.10   22.80
  -6  -5   0   -3.00   19.30
   6  -5   0   43.70   23.90
  -7   5   0    4.70   25.70
   7  -5   0   67.19   29.60
  -7  -5   0   42.30   25.30
   0   6   0  834.62   40.80
   0  -6   0  847.02   40.10
   0  -6   0  837.92   43.20
  -1  -6   0  302.67   20.10
   1   6   0  355.76   23.00
  -1   6   0  300.77   22.60
  -1   6   0  313.77   24.70
   1  -6   0  327.37   26.10
  -1  -6   0  266.67   24.30
   2  -6   0  246.08   24.30
  -2   6   0  257.47   21.80
   2   6   0  253.77   20.10
  -2   6   0  270.97   24.10
  -2  -6   0  278.57   25.40
  -2  -6   0  241.88   18.80
   3   6   0   80.29   14.10
  -3  -6   0   65.49   19.70
  -3  -6   0   59.19    8.70
  -3   6   0   68.89   31.90
   3  -6   0   50.29   26.50
  -3   6   0   64.29   15.10
  -4   6   0  182.58   20.40
   4  -6   0  130.19   25.30
  -4  -6   0  188.28   28.90
   4   6   0  159.78   16.30
  -4   6   0  129.39   24.40
  -5  -6   0   26.30   21.80
   5  -6   0   41.50   23.50
  -5   6   0   -1.50   19.00
  -5   6   0   37.60   16.00
  -6   6   0  147.89   31.30
  -6   6   0  123.19   21.60
   6  -6   0  170.18   32.10
  -6  -6   0  161.28   35.20
  -7   6   0   90.69   29.90
  -7  -6   0  -21.80   33.40
   0   7   0   10.10   10.90
   0  -7   0    5.10   10.60
   0   7   0   17.30   11.50
   1  -7   0   14.80   14.00
   1   7   0   24.40   12.40
  -1  -7   0   15.90   13.10
  -1   7   0    6.10   11.60
  -1   7   0   -2.00    8.70
  -1  -7   0   10.30    9.40
  -2  -7   0   15.30   14.20
  -2   7   0    1.00   10.60
   2   7   0    4.90   10.30
   2  -7   0   10.30   14.30
  -2  -7   0    4.70    8.80
   3   7   0    2.30    8.50
   3   7   0  -10.30   10.00
   3  -7   0   -3.80   14.20
  -3   7   0   12.20   14.30
  -3   7   0    9.40   13.60
  -3  -7   0  -12.00   12.30
   4   7   0  121.29   18.50
  -4   7   0  140.89   29.20
  -4   7   0  129.49   20.70
   4  -7   0  180.98   32.70
  -4  -7   0   97.09   24.50
  -5   7   0  -10.80   24.10
  -5  -7   0  -24.10   21.50
  -5   7   0  -17.30   13.80
   5   7   0    8.00   21.90
  -6  -7   0    7.10   22.50
  -6   7   0  -20.00   25.80
   6  -7   0   14.20   25.60
  -6   7   0   89.09   22.20
   0  -8   0  855.51   51.99
   0   8   0  761.02   44.00
   0   8   0  833.72   45.30
   1   8   0  587.44   37.40
  -1   8   0  496.75   35.60
   1   8   0  622.94   35.70
  -1  -8   0  527.45   39.50
  -1   8   0  640.04   40.10
   1  -8   0  629.14   42.00
   2   8   0 1048.00   47.30
   2   8   0  964.70   52.19
   2  -8   0 1071.89   58.09
  -2   8   0 1086.19   54.89
  -2   8   0 1116.29   58.29
  -2  -8   0  861.11   54.89
  -3   8   0  380.76   38.40
  -3   8   0  354.66   32.20
  -3  -8   0  404.86   37.30
   3   8   0  417.16   31.30
   3   8   0  388.36   22.90
   3  -8   0  337.27   37.20
  -4   8   0  578.84   47.70
  -4  -8   0  596.64   46.50
  -4   8   0  497.25   39.50
   4  -8   0  643.44   49.50
  -5   8   0  274.97   31.30
   5  -8   0  332.07   46.90
  -5  -8   0  288.27   40.90
  -5   8   0  258.57   39.90
  -6   8   0  155.78   28.80
  -6  -8   0  112.49   32.40
   6  -8   0   80.79   33.10
  -6   8   0  134.39   37.80
   0   9   0    0.80   14.40
   0   9   0    6.00   13.80
   0  -9   0    6.20   16.30
   1   9   0   29.90   14.10
  -1  -9   0   20.80   16.10
   1  -9   0    8.60   16.10
   1   9   0    3.30   14.50
  -1   9   0    6.90   14.30
  -1   9   0   -1.80   15.10
   2   9   0   12.70   12.30
   2  -9   0   -9.00   16.30
   2   9   0   -9.50   13.70
  -2   9   0   11.80   20.10
  -2   9   0  -14.00   13.50
  -2  -9   0   21.50   20.70
   3  -9   0   21.10   20.30
  -3   9   0  -23.10   18.80
   3   9   0    1.80   14.70
  -3  -9   0  -24.10   17.10
  -3   9   0   15.20   17.90
   3   9   0  -12.10   11.20
  -4  -9   0   15.50   24.80
   4   9   0    5.20   16.00
  -4   9   0   -0.90   20.60
   4  -9   0   14.90   22.70
  -4   9   0    5.90   16.60
   5  -9   0   50.19   28.10
  -5   9   0   31.60   23.30
  -5  -9   0   18.00   21.60
  -5   9   0   40.10   30.30
   0 -10   0  317.57   36.80
   0  10   0  361.26   35.90
   0  10   0  318.77   32.60
   1  10   0   97.39   21.40
  -1 -10   0   84.49   27.60
  -1  10   0   83.29   23.20
   1  10   0  115.79   26.90
   1 -10   0  134.79   29.70
  -1  10   0   77.89   23.70
  -2  10   0  402.86   39.00
   2  10   0  374.26   37.50
  -2  10   0  329.17   36.60
   2  10   0  386.76   36.40
  -2 -10   0  391.26   41.10
   2 -10   0  463.15   43.00
   3  10   0   22.40   19.30
  -3 -10   0   20.40   25.30
   3 -10   0    5.90   22.80
  -3  10   0   29.50   25.40
  -3  10   0   53.19   23.80
   4  10   0  310.77   34.20
  -4 -10   0  193.58   36.40
  -4  10   0  270.77   37.50
  -4  10   0  320.07   46.30
   4 -10   0  264.07   40.10
  -5  10   0  121.99   48.90
  -5  10   0   39.60   25.40
   0  11   0   36.20   21.30
   0 -11   0   41.40   24.50
   0  11   0   10.90   20.90
   1  11   0   22.10   20.60
  -1  11   0    5.10   21.90
   1 -11   0   31.70   24.50
  -1 -11   0   -5.80   18.80
   1  11   0   24.90   20.20
  -2 -11   0   40.80   24.10
   2 -11   0   28.90   23.70
  -2  11   0   31.20   25.00
  -2  11   0   29.60   23.10
   2  11   0   18.00   22.10
   2  11   0   20.20   20.70
   3  11   0  -14.60   20.20
  -3 -11   0   -2.90   22.10
   3 -11   0   45.30   25.80
  -3  11   0    9.00   25.50
  -3  11   0   -4.80   23.00
  -4  11   0  -11.10   21.70
  -4 -11   0  -33.10   25.40
   4  11   0  -25.40   26.30
   4 -11   0    1.70   32.90
   0 -12   0  297.17   46.00
   0  12   0  258.87   38.10
   0  12   0  320.97   43.10
  -1  12   0   80.69   30.70
   1 -12   0   86.99   29.10
  -1  12   0  142.49   31.20
  -1 -12   0  128.49   31.30
   1  12   0   48.70   22.70
  -2  12   0  214.58   38.30
  -2  12   0  273.67   44.00
   2 -12   0  213.88   44.00
  -2 -12   0  218.88   40.50
   2  12   0  300.77   42.00
   3  12   0   25.00   27.60
  -3  12   0   20.90   30.40
  -3  12   0   18.60   35.30
   0   0  -1    0.20    1.40
   1   0  -1  330.67   14.50
  -1   0   1  319.77   12.60
  -1   0   1  331.17   12.80
   1   0   1  327.27   14.30
   1   0   1  317.87   13.80
  -1   0  -1  332.07   11.30
   1   0   1  327.37   11.20
   1   0  -1  323.67   12.70
  -1   0  -1  301.97   14.10
  -1   0   1  331.77   14.30
   1   0  -1  316.37   12.90
  -1   0  -1  321.07   14.10
  -2   0   1  362.36   15.80
  -2   0   1  351.06   15.50
  -2   0   1  351.26   14.50
   2   0  -1  358.36   14.80
  -2   0  -1  347.37   17.00
   2   0  -1  374.26   19.10
   2   0   1  327.27   16.50
   2   0   1  368.96   18.80
  -3   0   1  392.16   16.00
  -3   0   1  384.46   18.80
  -3   0  -1  367.76   20.40
   3   0   1  381.36   22.90
  -3   0   1  378.96   18.70
  -3   0   1  359.86   22.20
   3   0  -1  386.66   16.10
  -4   0  -1   78.59   15.50
  -4   0   1   80.29   16.20
  -4   0   1   72.59   10.90
  -4   0  -1   72.29   11.90
  -4   0   1   65.89    5.50
  -4   0   1   58.49    5.90
  -5   0  -1  181.48   19.40
  -5   0   1  194.28   18.20
  -5   0   1  225.18   28.70
  -5   0  -1  219.78   28.20
  -6   0  -1   40.80   14.70
  -6   0   1   26.50   12.40
  -6   0  -1    5.50   14.80
  -6   0   1   17.20   17.90
  -7   0  -1   44.90   23.20
  -7   0   1   64.69   25.30
  -8   0   1   15.40   37.80
  -8   0  -1   -2.30   34.90
   0  -1  -1   40.90    4.80
   0   1   1   43.20    4.00
   0  -1   1   39.20    3.60
   0  -1  -1   31.30    3.60
   0   1  -1   58.99    6.10
   0  -1   1   36.70    3.90
   0   1   1   38.10    3.70
   0  -1   1   28.60    4.40
   0   1   1   34.50    3.80
   0   1  -1   27.90    3.40
   0   1  -1   37.10    3.70
   0  -1  -1   37.60    3.70
   1   1  -1  189.58    9.20
  -1   1   1  202.08   10.20
   1  -1   1  205.78    9.00
  -1   1   1  205.38   10.20
   1  -1   1  218.38   11.90
   1  -1   1  201.58   11.00
  -1  -1  -1  200.08    9.60
  -1  -1  -1  205.58   10.40
  -1   1   1  202.78    9.70
   1   1   1  173.58    7.90
   1   1   1  179.08    9.40
   1   1   1  171.58    7.70
   1   1   1  172.28    9.80
   1  -1  -1  168.98   10.20
  -1  -1   1  179.78    8.80
  -1   1  -1  176.28   10.70
  -1   1  -1  183.08   11.30
   1  -1  -1  159.48    9.40
  -1  -1   1  174.48   10.50
  -1   1  -1  183.88    8.70
   1  -1  -1  170.58   10.10
  -2  -1  -1  218.08   12.70
  -2   1   1  210.38   13.10
   2   1  -1  204.58   10.90
  -2  -1  -1  210.68   14.40
   2  -1   1  224.28   15.10
  -2   1   1  237.28   13.00
  -2   1   1  225.08   13.20
  -2   1  -1  252.87   10.90
   2  -1  -1  254.17   12.40
  -2  -1   1  255.37   10.20
   2  -1  -1  243.28   15.10
  -2   1  -1  250.97   14.80
  -2  -1   1  239.48   10.80
  -2  -1   1  248.18   15.30
  -2  -1   1  259.47   10.30
   3   1   1  134.79   11.60
  -3  -1   1  132.49   13.30
  -3  -1   1  136.39    7.90
  -3   1  -1  146.29    8.20
  -3  -1   1  157.08    9.50
  -3   1  -1  151.28    8.00
   3  -1  -1  157.88   15.10
  -3  -1   1  140.29    9.00
  -4   1   1  145.59   14.30
  -4   1   1  143.59    9.90
  -4  -1  -1  155.78   18.20
  -4  -1  -1  156.48   14.00
  -4   1   1  141.49    9.60
   4  -1   1  164.28   21.00
  -4   1  -1  128.49    6.40
  -4  -1   1  131.49   10.40
   4  -1  -1  133.19   19.50
  -4  -1   1  120.49    6.30
  -4   1  -1  125.69   15.20
  -4  -1   1  143.99   19.30
  -4  -1   1  138.19   11.60
  -5  -1  -1   98.79   15.70
  -5   1   1  104.89   17.20
  -5   1   1   52.69    7.20
  -5  -1  -1   55.39   16.70
  -5   1   1   54.69    6.10
   5  -1   1   63.39   18.70
  -5   1   1   38.90   15.80
  -5   1  -1   22.90   14.80
  -5   1  -1   44.70   14.80
  -5  -1   1   58.79   10.70
  -5  -1   1   59.69   16.70
  -6   1   1   60.29   16.40
  -6   1   1   49.70   21.30
  -6  -1  -1   39.50   17.80
  -6  -1  -1   74.49   15.60
  -6   1  -1   49.60   17.40
  -6   1  -1   23.30   20.60
  -6  -1   1   51.99   20.10
  -7   1   1   10.90   17.90
  -7  -1  -1   49.50   22.40
  -7   1   1   17.30   21.90
  -7   1  -1    8.30   23.80
  -7   1  -1   46.40   19.70
  -7  -1   1  -19.90   20.20
  -8  -1  -1  -31.60   25.20
  -8   1   1   10.80   29.80
  -8   1  -1   13.20   37.20
  -8  -1   1   -1.00   26.60
   0   2  -1   48.60    5.80
   0  -2  -1   73.39    8.20
   0   2  -1   57.19    8.30
   0   2   1   62.89    8.20
   0  -2   1   48.20    8.00
   0   2   1   64.29    7.80
   0  -2  -1   60.39    7.50
   0  -2  -1   70.09    8.00
   0   2  -1   45.90    5.90
   0   2   1   52.59    7.40
   0  -2   1   54.69    6.70
   0   2  -1   56.09    7.10
   0   2   1   45.40    5.70
   1  -2   1 4573.34  153.68
  -1  -2  -1 4706.03  151.18
  -1  -2  -1 4652.13  153.18
  -1   2   1 4663.03  153.08
   1  -2   1 4674.53  154.28
   1   2  -1 4721.33  154.28
  -1   2   1 4775.92  153.08
   1  -2   1 4705.13  152.48
   1   2  -1 4633.34  152.08
  -1  -2  -1 4658.93  151.78
  -1   2   1 4688.33  153.38
   1   2  -1 4631.24  149.19
  -1   2   1 4704.23  154.18
  -1  -2   1 4567.34  153.28
   1   2   1 4729.03  151.38
  -1   2  -1 4599.94  154.18
  -1   2  -1 4625.44  152.38
   1   2   1 4579.04  151.68
   1  -2  -1 4735.23  154.48
   1   2   1 4747.43  153.28
   1  -2  -1 4649.33  153.38
  -1   2  -1 4666.23  153.98
  -1  -2   1 4737.53  154.38
   2  -2   1  428.56   22.90
  -2  -2  -1  409.76   19.10
   2  -2   1  407.56   19.30
   2   2  -1  399.26   18.80
  -2   2   1  426.36   22.20
  -2   2   1  411.86   19.80
  -2  -2  -1  419.06   22.40
  -2   2   1  412.56   20.00
  -2   2  -1  515.55   24.00
  -2   2  -1  490.05   20.00
   2   2   1  482.35   17.70
   2   2   1  479.35   17.70
   2  -2  -1  481.15   23.20
  -2  -2   1  460.55   21.50
   2   2   1  477.25   20.50
  -2  -2   1  473.15   23.60
  -3  -2  -1 2009.40   69.79
  -3  -2  -1 2043.70   76.49
   3   2  -1 1984.30   67.99
  -3   2   1 1935.51   74.09
  -3   2   1 1948.01   70.19
   3  -2   1 1993.60   76.99
  -3   2  -1 2015.50   69.19
   3   2   1 1960.50   69.39
  -3   2  -1 1978.00   69.49
  -3   2  -1 2000.40   75.29
  -3  -2   1 1996.70   76.89
  -3  -2   1 2022.40   65.49
  -3  -2   1 2012.10   65.39
   3  -2  -1 2093.79   76.89
   4  -2   1  172.58   22.20
  -4   2   1  160.28   17.50
  -4   2   1  170.28   13.10
  -4  -2  -1  170.88   14.40
  -4  -2  -1  165.88   19.60
   4   2  -1  172.08    9.60
  -4   2  -1  213.18   12.50
  -4  -2   1  202.78    9.50
  -4   2  -1  207.38   12.10
  -4  -2   1  195.98   10.50
  -4  -2   1  221.88   11.10
  -4  -2   1  194.98   21.10
   4  -2  -1  204.38   21.10
  -4   2  -1  205.48   19.90
  -5  -2  -1  695.83   42.60
  -5   2   1  743.03   39.90
  -5   2   1  684.23   29.30
   5  -2   1  651.63   43.10
  -5   2  -1  761.12   40.70
   5  -2  -1  698.43   43.50
  -5  -2   1  706.23   27.20
  -5  -2   1  671.03   42.60
  -6  -2  -1   45.50   11.90
   6  -2   1   76.29   23.60
  -6  -2  -1   26.00   19.40
  -6   2   1   54.79   20.50
  -6   2  -1   79.39   24.70
  -6  -2   1  100.19   26.90
  -6   2  -1  104.69   22.50
  -7   2   1  274.87   32.20
  -7  -2  -1  355.46   46.10
  -7   2   1  343.67   44.10
  -7   2  -1  207.68   30.90
  -7   2  -1  276.87   39.30
  -7  -2   1  289.57   39.70
   0   3   1 2025.60   71.49
   0  -3  -1 2027.10   71.09
   0   3  -1 2062.69   70.99
   0   3  -1 2023.20   70.09
   0   3   1 2035.30   70.79
   0  -3   1 1977.80   72.89
   0   3  -1 1977.80   70.19
   0  -3  -1 2041.90   71.79
   0   3   1 1954.30   70.79
  -1  -3  -1  100.59    8.60
   1   3  -1  106.39    7.40
  -1  -3  -1   95.69    7.90
   1   3  -1   94.19    9.10
   1  -3   1   91.99   10.40
  -1   3   1  101.09    9.60
  -1  -3  -1  106.79   11.10
   2   3  -1 1179.08   39.10
   2   3  -1 1119.29   43.60
  -2  -3  -1 1146.59   42.30
  -2  -3  -1 1100.99   47.00
  -2  -3  -1 1177.98   42.90
  -2   3   1 1172.68   45.30
   2  -3   1 1163.88   48.40
  -2   3   1 1162.48   48.10
   2   3   1 1204.68   42.80
  -2  -3   1 1251.17   49.10
  -2   3  -1 1180.98   45.00
   2  -3  -1 1185.48   47.80
  -2  -3   1 1146.29   39.00
   2   3   1 1150.88   42.90
  -2   3  -1 1210.88   48.30
  -3  -3  -1  468.95   22.30
   3  -3   1  487.65   29.60
  -3   3   1  493.65   28.00
  -3   3   1  479.65   27.00
   3   3  -1  499.15   22.90
  -3  -3  -1  504.55   29.30
  -3  -3   1  483.45   22.00
  -3   3  -1  571.74   30.10
  -3  -3   1  568.54   30.70
   3   3   1  512.55   22.50
  -3   3  -1  585.44   25.40
   3  -3  -1  601.04   31.40
   3   3   1  559.24   21.50
  -4   3   1  512.25   31.80
  -4   3   1  464.95   24.90
  -4  -3  -1  481.25   32.30
   4  -3   1  476.05   32.60
  -4  -3  -1  499.65   23.00
   4   3  -1  495.85   21.20
   4   3   1  510.55   30.00
  -4  -3   1  453.15   20.30
   4  -3  -1  519.95   33.40
  -4  -3   1  461.35   32.10
  -4   3  -1  531.75   33.10
  -4   3  -1  536.35   25.60
  -5  -3  -1   48.10    8.80
   5  -3   1   25.10   15.70
  -5   3   1   27.80    9.60
  -5   3   1   42.60   17.70
  -5  -3  -1   33.10   16.80
   5  -3  -1   57.39   20.30
  -5  -3   1   63.29   20.20
  -5   3  -1   58.09   10.30
  -6   3   1  229.48   31.30
  -6  -3  -1  212.48   35.10
   6  -3   1  232.78   35.10
  -6  -3   1  292.17   38.30
   6  -3  -1  325.87   35.20
  -6   3  -1  293.77   31.60
  -7   3   1   43.20   28.00
  -7   3   1   44.90   24.10
  -7  -3  -1   14.40   22.80
  -7  -3   1   62.69   25.50
  -7   3  -1   63.69   26.50
  -7   3  -1   79.89   27.70
   0   4  -1 1745.43   64.49
   0  -4  -1 1763.42   66.59
   0  -4  -1 1792.32   65.79
   1  -4   1  360.06   23.50
  -1  -4  -1  378.96   24.40
   1   4  -1  354.16   18.40
  -1   4   1  383.66   21.60
   1   4  -1  403.96   22.80
  -1  -4  -1  401.76   20.60
  -1  -4   1  379.56   23.90
   1   4   1  411.46   20.90
  -1   4  -1  426.76   22.20
  -1   4  -1  424.96   22.90
   1  -4  -1  427.56   23.30
  -1  -4   1  425.96   19.30
  -2   4   1 1079.19   43.70
   2  -4   1 1063.69   46.60
  -2  -4  -1 1068.19   45.60
   2   4  -1 1048.70   42.00
  -2  -4  -1 1064.69   40.00
   2   4  -1 1040.60   37.20
  -2   4   1 1079.69   46.60
  -2  -4   1 1057.59   46.60
  -2   4  -1  983.30   45.70
  -2  -4   1  989.90   36.80
   2   4   1  995.20   40.60
   2   4   1  969.50   40.50
   2  -4  -1 1032.70   45.20
  -2   4  -1 1029.60   43.00
  -3   4   1  698.23   33.40
  -3  -4  -1  697.23   29.10
   3  -4   1  653.43   37.60
   3   4  -1  691.23   30.90
  -3   4   1  695.13   37.20
  -3  -4  -1  712.93   37.40
  -3   4  -1  691.33   32.70
   3  -4  -1  704.23   37.30
  -3  -4   1  676.43   37.20
  -3   4  -1  757.52   38.60
   3   4   1  731.03   29.80
   3   4   1  634.24   28.40
  -4  -4  -1  430.56   20.50
  -4  -4  -1  440.46   32.10
  -4   4   1  447.06   31.80
   4   4  -1  463.25   22.30
  -4   4   1  462.75   25.80
   4  -4  -1  470.95   32.60
   4   4   1  407.66   19.10
  -4   4  -1  429.26   24.80
  -4   4  -1  486.45   32.60
   4   4   1  415.86   20.40
  -4  -4   1  450.45   46.50
  -5   4   1  150.48   17.00
  -5   4   1  107.99   22.90
   5  -4   1  186.08   29.50
  -5  -4  -1  147.59   10.60
  -5  -4  -1  215.98   31.70
  -5   4  -1  161.58   16.40
  -5   4  -1  159.68   26.80
   5  -4  -1  145.29   25.70
  -5  -4   1  192.18   28.60
  -6  -4  -1  203.08   33.20
  -6   4   1  214.28   32.20
   6  -4   1  255.97   36.10
  -6   4   1  245.98   19.00
  -6  -4   1  303.77   41.40
  -6   4  -1  237.58   34.00
   6  -4  -1  257.07   39.30
   7  -4   1   42.40   24.40
  -7  -4  -1   39.80   26.90
  -7   4   1   65.99   28.90
  -7   4  -1   38.70   27.90
  -7  -4   1   71.69   26.70
  -7   4  -1   63.99   30.10
   0   5  -1  493.15   25.90
   0   5  -1  463.45   26.30
   0   5   1  519.85   27.00
   0  -5  -1  485.55   26.90
   0  -5  -1  466.65   27.40
   0  -5   1  537.15   29.50
  -1   5   1  239.28   18.10
   1   5  -1  246.18   15.80
   1  -5   1  232.48   21.00
   1   5  -1  257.67   18.30
  -1  -5  -1  251.87   20.30
   1  -5  -1  212.68   18.80
   1  -5  -1  214.98   18.90
  -1   5  -1  261.27   18.70
  -1  -5   1  227.78   20.20
  -1   5  -1  223.58   18.20
   1   5   1  258.27   17.70
  -2  -5  -1  279.57   21.90
   2  -5   1  294.77   23.60
   2   5  -1  256.37   14.70
  -2   5   1  256.67   22.70
  -2  -5  -1  289.57   17.10
   2   5  -1  260.57   15.00
   2   5  -1  269.47   19.10
  -2   5   1  248.38   19.70
   2  -5  -1  280.97   22.20
  -2   5  -1  307.37   23.70
   2   5   1  282.07   18.20
  -2  -5   1  294.17   23.70
  -2   5  -1  281.17   20.20
  -3   5   1   63.89   12.70
   3   5  -1   68.19    5.70
   3  -5   1   69.89   16.30
  -3   5   1   73.49   17.60
   3   5  -1   81.29   13.00
  -3  -5  -1   74.69    9.40
   3   5  -1   69.29    6.60
  -3  -5  -1   95.29   16.90
  -3  -5   1   60.89   16.10
   3  -5  -1   69.79   16.50
   3   5   1   75.69   12.30
  -3   5  -1   63.19   17.40
  -3   5  -1   73.39   13.00
   4   5  -1  232.98   17.80
   4  -5   1  238.88   31.50
  -4   5   1  251.17   21.20
  -4  -5  -1  247.18   26.30
  -4   5   1  242.38   26.70
  -4  -5  -1  227.28   13.90
   4   5   1  206.38   15.70
  -4   5  -1  218.28   25.40
   4  -5  -1  216.18   26.30
  -4  -5   1  209.48   28.80
  -4   5  -1  253.07   20.30
   5  -5   1   78.19   23.40
  -5  -5  -1  119.89   25.90
   5   5  -1  104.09   11.70
  -5   5   1  116.89   18.90
  -5   5   1   76.19   22.60
   5  -5  -1   57.99   22.70
  -5  -5   1   92.29   22.40
  -5   5  -1  111.59   17.50
  -5   5  -1  101.79   24.30
  -6  -5  -1  118.39   31.20
  -6   5   1  141.09   18.90
  -6   5   1  159.68   31.90
   6  -5   1  164.48   33.50
  -6   5  -1  142.59   30.10
  -6  -5   1  175.28   32.40
  -6   5  -1  156.48   22.90
   6  -5  -1  178.18   33.00
  -7   5   1   55.69   28.10
   7  -5   1   25.00   27.80
  -7  -5  -1   15.20   22.20
   7  -5  -1   94.89   31.80
  -7   5  -1   36.70   29.00
  -7  -5   1   13.30   25.00
   0  -6   1 1079.19   51.59
   0  -6  -1 1123.29   50.79
   0   6   1 1083.09   48.70
   0   6  -1 1072.39   48.30
   0  -6  -1 1115.19   48.80
   0   6  -1 1040.50   47.10
  -1   6   1  311.97   22.80
  -1  -6  -1  310.07   21.60
  -1  -6  -1  304.27   24.30
   1  -6   1  331.37   26.70
   1   6  -1  321.37   22.80
   1   6  -1  327.97   20.60
  -1   6  -1  283.07   22.70
   1  -6  -1  323.17   25.10
   1  -6  -1  302.07   24.60
  -1   6  -1  284.27   22.40
  -1  -6   1  321.17   25.90
   1   6   1  304.67   21.90
  -2   6   1  720.13   41.40
   2  -6   1  699.03   42.00
  -2  -6  -1  746.63   35.20
   2   6  -1  755.72   32.70
  -2   6   1  670.13   38.00
   2   6  -1  745.73   38.30
  -2  -6  -1  735.13   41.40
  -2   6  -1  825.12   40.20
   2  -6  -1  857.51   43.10
  -2  -6   1  859.51   44.60
   2   6   1  848.02   38.40
  -2   6  -1  823.22   43.80
  -3  -6  -1  176.68   25.40
  -3   6   1  144.99   20.60
   3  -6   1  194.58   40.90
   3   6  -1  140.69   16.70
  -3   6   1  172.38   27.70
   3   6  -1  157.68   10.70
  -3  -6  -1  139.29   13.80
   3   6   1  137.89   16.10
  -3   6  -1  152.08   20.70
  -3   6  -1  156.48   25.50
   3  -6  -1  159.18   24.40
  -4  -6  -1  544.15   39.60
   4  -6   1  529.65   40.30
   4   6  -1  548.25   29.90
  -4   6   1  552.04   33.70
  -4  -6  -1  507.05   23.10
  -4   6   1  573.14   38.90
   4  -6  -1  487.65   37.60
  -4  -6   1  467.85   38.50
   4   6   1  483.25   27.50
  -4   6  -1  513.75   40.70
  -4   6  -1  492.25   32.10
  -5   6   1  146.89   29.80
   5  -6   1  131.09   28.70
  -5   6   1  103.49   19.30
   5   6  -1  144.39   16.40
  -5  -6  -1  188.48   32.70
   5  -6  -1  175.98   29.60
  -5   6  -1  132.39   24.00
  -5   6  -1  171.08   32.10
  -5  -6   1  145.39   31.30
  -6  -6  -1  280.77   42.40
  -6   6   1  216.18   24.30
   6  -6   1  218.18   37.00
  -6   6   1  239.28   36.40
  -6   6  -1  214.18   24.90
  -6  -6   1  276.37   42.90
   6  -6  -1  310.07   44.00
  -6   6  -1  333.27   40.90
  -7   6   1   75.99   30.10
  -7  -6  -1  -10.90   30.40
   7  -6   1   30.10   34.90
  -7   6  -1  -22.60   26.00
   0  -7  -1  550.14   33.80
   0   7  -1  603.94   33.80
   0   7   1  602.34   35.00
   0  -7  -1  574.84   36.50
   0   7  -1  570.84   34.60
   0  -7   1  600.34   38.40
   1  -7   1  239.68   26.20
  -1  -7  -1  224.48   24.70
   1   7  -1  244.78   22.30
  -1   7   1  250.97   22.70
   1   7  -1  237.38   19.20
  -1  -7  -1  229.98   20.70
  -1   7   1  232.68   24.90
   1  -7  -1  216.58   24.00
  -1   7  -1  246.18   24.40
   1  -7  -1  262.17   25.60
  -1   7  -1  235.38   22.50
  -1  -7   1  240.58   25.70
   1   7   1  221.18   21.40
   2   7  -1  906.61   44.40
  -2  -7  -1  868.11   47.50
  -2   7   1  817.52   52.99
  -2  -7  -1  841.62   39.90
  -2   7   1  882.81   52.59
   2   7  -1  812.02   37.10
  -2   7  -1  875.91   45.20
   2   7   1  793.22   42.40
   2  -7  -1  831.82   46.40
   3  -7   1  153.88   27.40
  -3   7   1  121.29   20.50
  -3  -7  -1  122.49   14.50
  -3  -7  -1  165.88   26.50
  -3   7   1  120.59   23.70
   3   7  -1  147.99   20.40
   3   7  -1  131.89   12.00
   3  -7  -1  183.18   28.20
  -3  -7   1  168.08   27.20
  -3   7  -1  183.68   28.50
   3   7   1  165.68   21.20
  -3   7  -1  149.79   21.80
  -4   7   1  499.85   42.40
   4   7  -1  489.75   30.70
  -4   7   1  514.05   34.90
   4  -7   1  461.15   40.60
  -4  -7  -1  451.45   39.40
   4   7   1  463.05   29.30
   4  -7  -1  510.25   39.90
  -4   7  -1  450.15   33.00
  -4  -7   1  419.26   40.00
  -5   7   1   99.39   29.40
   5   7  -1   68.49   15.80
  -5  -7  -1   77.59   27.30
  -5   7   1   66.79   19.10
   5  -7  -1  128.09   31.00
  -5   7  -1   93.19   28.30
  -5   7  -1   74.69   19.70
  -6  -7  -1  204.78   38.00
  -6   7   1   95.09   22.40
  -6   7   1  150.28   33.80
   6  -7   1  145.09   35.00
  -6   7  -1  113.79   24.70
   6  -7  -1  105.79   29.10
  -6  -7   1  196.18   35.00
  -6   7  -1  171.78   38.10
   0   8  -1  113.19   19.30
   0  -8  -1  130.99   22.00
   0   8   1  144.39   22.60
   0   8   1  125.89   22.20
   0  -8   1  125.59   25.90
   0   8  -1  107.59   20.60
  -1   8   1   42.00   18.10
  -1   8   1   31.10   15.00
   1  -8   1   24.70   17.30
  -1  -8  -1   24.70   16.60
  -1  -8  -1   15.00   12.00
   1   8  -1   38.00   16.10
   1   8  -1   42.50   13.30
  -1   8  -1   38.50   16.20
  -1  -8   1   25.60   15.50
   1   8   1   50.09   15.30
   1  -8  -1   39.20   15.70
  -1   8  -1   42.00   16.10
   2   8  -1   38.40   12.30
  -2  -8  -1   33.40   13.10
   2  -8   1   48.00   20.00
  -2   8   1   25.40   13.80
  -2   8   1   44.60   17.90
  -2  -8  -1   54.19   18.90
   2   8  -1   46.10   16.30
  -2  -8   1   54.39   20.80
  -2   8  -1   75.89   20.60
   2  -8  -1   79.29   20.10
  -2   8  -1  116.99   22.10
   2   8   1   99.59   20.80
   3   8  -1   59.29   16.80
   3   8  -1   91.69   17.80
  -3  -8  -1   66.09   20.80
  -3   8   1   91.39   27.20
   3  -8   1   70.29   24.00
  -3   8   1   73.19   20.40
  -3  -8  -1   74.39   13.50
   3   8   1   32.90   22.50
  -3   8  -1   44.30   23.30
   3  -8  -1   44.60   21.60
  -3   8  -1   48.20   17.50
  -3  -8   1   58.09   22.10
  -4  -8  -1   -8.40   19.00
   4  -8   1   29.20   22.50
   4   8  -1   15.00   13.60
  -4   8   1   17.40   21.70
  -4   8   1   -4.00   14.10
  -4  -8   1   32.10   23.10
   4  -8  -1    4.30   20.10
  -4   8  -1   -2.70   21.90
  -4   8  -1   29.00   17.10
   4   8   1   29.60   15.20
  -5   8   1   92.79   24.50
  -5   8   1  135.09   33.10
  -5  -8  -1  113.29   28.20
   5  -8   1  104.29   32.60
   5  -8  -1   53.69   26.30
  -5  -8   1   80.99   25.50
  -5   8  -1   54.49   22.00
  -5   8  -1   19.80   25.90
  -6   8   1   -3.60   21.90
  -6  -8  -1   44.80   24.50
   6  -8   1  -10.80   25.20
  -6   8   1  -30.30   27.30
  -6  -8   1   35.30   29.20
  -6   8  -1  -19.40   29.30
   6  -8  -1   20.40   26.10
   0   9   1  510.65   38.00
   0  -9  -1  579.84   41.30
   0   9  -1  493.45   38.10
   0   9   1  563.24   39.40
   0  -9   1  525.85   41.50
   0   9  -1  549.74   37.20
   1   9  -1   55.39   15.60
   1  -9   1   74.99   25.80
  -1   9   1   72.19   20.70
  -1   9   1   18.40   14.20
  -1  -9  -1   47.80   19.40
   1   9  -1   54.89   18.60
  -1   9  -1   43.70   19.50
   1   9   1   18.90   15.70
  -1   9  -1   44.40   18.90
  -1  -9   1   30.90   17.50
   1  -9  -1   57.59   20.10
   2  -9   1  543.25   45.10
  -2  -9  -1  548.35   43.30
  -2   9   1  587.24   45.30
   2   9  -1  630.54   42.20
  -2   9   1  509.55   40.10
   2   9  -1  556.24   33.00
  -2   9  -1  489.35   42.70
   2   9   1  578.54   35.20
   2  -9  -1  561.94   42.40
   2   9   1  527.15   37.80
  -2  -9   1  544.65   44.30
  -2   9  -1  469.05   38.90
   3  -9   1  111.89   29.70
  -3   9   1  127.59   30.80
   3   9  -1  118.69   23.00
  -3  -9  -1   58.89   23.30
   3   9  -1   96.09   14.70
  -3   9   1   76.49   21.60
  -3  -9   1   73.89   27.20
   3  -9  -1   49.80   22.90
  -3   9  -1   90.99   22.80
   3   9   1   94.09   16.80
   3   9   1   93.79   22.40
  -3   9  -1  153.98   32.00
  -4   9   1  276.17   40.50
  -4   9   1  307.07   36.40
   4   9  -1  254.37   30.50
  -4  -9  -1  257.77   42.10
   4  -9   1  330.67   44.60
   4  -9  -1  270.67   38.70
  -4   9  -1  243.38   40.30
  -4   9  -1  275.27   33.80
   4   9   1  219.98   27.00
  -4  -9   1  282.97   42.20
  -5  -9  -1   60.19   25.80
  -5   9   1   45.10   29.30
  -5   9   1   22.30   20.00
   5  -9   1  -12.90   24.50
  -5   9  -1   40.70   23.80
  -5   9  -1   18.20   32.60
   5  -9  -1   23.90   22.30
  -5  -9   1   -8.70   21.50
   0  10  -1   92.09   24.40
   0 -10   1  108.09   27.50
   0  10  -1   97.99   23.20
   0 -10  -1  111.19   26.80
   0  10   1  116.49   27.00
   0  10   1   85.69   23.20
  -1 -10  -1  322.67   38.30
   1  10  -1  437.56   34.00
   1  10  -1  432.56   38.80
  -1  10   1  458.65   38.60
   1 -10   1  404.96   41.50
  -1  10   1  388.16   37.30
  -1  10  -1  321.77   36.70
  -1 -10   1  380.26   40.00
   1  10   1  398.16   34.40
   1  10   1  348.97   36.70
  -1  10  -1  390.96   38.50
   1 -10  -1  317.07   35.70
   2  10  -1  169.08   23.10
  -2  10   1  200.08   35.20
   2 -10   1  171.98   34.40
  -2 -10  -1  182.78   32.30
   2  10  -1  205.28   32.30
  -2  10   1  167.28   30.20
  -2 -10   1  103.39   27.50
   2 -10  -1  138.49   29.70
   2  10   1  168.38   27.30
   2  10   1  196.18   25.60
  -2  10  -1  125.79   28.70
  -2  10  -1  168.38   32.50
   3  10  -1  162.78   29.40
  -3  10   1  201.18   39.40
  -3  10   1  164.08   30.10
  -3 -10  -1  170.58   33.00
   3 -10   1  152.58   31.30
  -3  10  -1  185.18   32.30
  -3 -10   1  178.38   34.40
   3 -10  -1  170.48   32.50
   3  10   1  171.98   30.40
  -3  10  -1  222.08   38.30
   3  10   1  230.28   29.80
  -4  10   1  134.79   30.30
   4 -10   1  131.69   33.70
  -4 -10  -1   86.59   27.90
  -4  10   1   81.99   32.80
   4  10  -1  148.19   29.90
   4 -10  -1  112.29   33.90
  -4  10  -1  197.58   39.30
   4  10   1  113.39   25.70
  -4 -10   1   85.09   28.10
  -4  10  -1  125.59   28.60
  -5  10   1   92.59   39.90
   5 -10   1   80.99   52.79
  -5 -10  -1  162.98   57.39
  -5  10   1   73.39   25.30
  -5  10  -1  117.79   31.80
  -5  10  -1  163.18   48.10
   0  11  -1   22.50   24.00
   0  11   1    7.00   20.70
   0  11   1   55.79   22.50
   0  11  -1   29.90   20.60
   0 -11   1   37.90   25.00
   1  11  -1   16.80   19.70
  -1  11   1   26.00   24.60
   1 -11   1  -15.70   21.20
  -1  11   1   10.30   21.80
  -1 -11  -1    1.90   24.10
   1  11  -1   13.60   23.90
   1  11   1   12.20   18.90
   1 -11  -1   19.00   23.80
   1  11   1   -9.50   20.20
  -1  11  -1    8.50   20.20
  -1 -11   1  -11.50   20.80
   2  11  -1   -1.10   18.80
  -2  11   1   44.20   27.30
  -2 -11  -1   68.69   25.50
  -2  11   1   18.80   24.00
   2 -11   1   37.10   25.90
   2  11  -1   44.40   25.30
   2  11   1   50.49   23.60
   2 -11  -1   78.09   29.00
  -2 -11   1   52.39   27.50
  -2  11  -1   40.70   25.00
  -2  11  -1   78.39   28.30
   2  11   1   36.80   21.10
  -3  11   1   23.60   28.20
   3  11  -1   14.80   22.40
   3 -11   1   64.49   28.30
  -3  11   1  -22.00   19.10
  -3 -11  -1   13.90   24.50
  -3 -11   1   15.00   24.20
   3 -11  -1   21.50   24.60
  -3  11  -1   71.79   31.20
  -3  11  -1    7.20   22.20
   3  11   1    0.20   22.80
   4  11  -1   -9.00   24.70
  -4 -11  -1    7.40   24.00
  -4  11   1   21.40   25.40
   4 -11   1   25.40   40.70
  -4  11  -1   -0.40   24.00
   4  11   1    0.40   27.50
  -4 -11   1   31.70   35.90
   4 -11  -1   36.20   29.00
   0 -12   1    8.90   24.60
   0  12   1   11.10   21.60
   0  12  -1   14.90   24.20
   0  12  -1   19.60   26.90
   0  12   1   31.00   25.20
   0 -12  -1  -20.10   23.30
  -1 -12  -1  251.67   38.40
  -1  12   1  377.96   43.60
  -1  12   1  305.47   43.10
   1  12  -1  351.86   41.00
   1 -12   1  371.76   42.40
  -1  12  -1  246.28   39.00
  -1 -12   1  282.67   43.90
   1  12   1  334.67   39.20
  -1  12  -1  245.88   40.50
   1  12   1  266.87   37.50
   1 -12  -1  236.48   38.70
   2  12  -1   41.30   25.70
  -2  12   1   46.50   29.00
  -2  12   1   41.10   29.40
   2 -12   1   65.49   31.90
  -2 -12  -1    8.50   25.90
   2 -12  -1  -14.60   25.00
  -2  12  -1   60.09   29.30
  -2  12  -1   59.49   29.10
  -2 -12   1   45.50   29.30
   2  12   1   29.50   25.60
   0   0  -2   15.40    4.10
   0   0   2   13.70    3.50
   0   0   2    8.20    2.90
   0   0  -2   18.50    2.40
   0   0  -2    8.90    3.30
   0   0   2   14.80    2.20
  -1   0   2   69.09    5.20
  -1   0  -2   54.69    4.70
  -1   0   2   56.99    5.60
   1   0   2   69.49    7.50
   1   0   2   64.69    4.60
   1   0  -2   66.99    5.40
  -1   0  -2   61.29    6.70
  -1   0  -2   53.99    5.70
  -1   0   2   57.69    5.80
  -1   0   2   64.09    5.50
   1   0   2   65.79    5.90
   1   0  -2   54.99    5.70
  -2   0   2  112.79    8.60
   2   0  -2   84.09    7.60
  -2   0   2   93.59    9.70
  -2   0  -2   99.39    9.70
   2   0   2   97.49    4.60
   2   0   2  101.99    9.80
  -2   0   2   96.49    7.20
   2   0   2   87.39    8.50
  -2   0   2  101.99    7.60
  -3   0   2  121.19   13.20
  -3   0   2  116.99    8.90
  -3   0   2  104.89    9.60
  -3   0  -2  110.49   12.00
  -3   0   2  107.59    8.20
   3   0  -2  113.39    8.80
   3   0   2  120.89   12.80
   4   0   2    8.80   10.80
  -4   0   2    8.70    6.60
  -4   0   2    9.10    5.20
  -4   0  -2   11.40    8.60
   4   0  -2   14.50    5.40
  -4   0   2   15.00   10.70
  -4   0  -2   -7.10    8.40
  -5   0  -2  116.39   17.90
  -5   0   2  129.19   15.50
  -5   0  -2  117.49   22.10
  -5   0   2   78.29    7.20
  -5   0   2   97.29   19.80
  -6   0  -2    6.70   14.20
  -6   0  -2   10.10   16.10
  -6   0   2   15.40   15.90
  -6   0   2   15.00   10.80
  -7   0  -2   39.20   22.80
  -7   0  -2  114.29   22.00
  -7   0   2   78.49   24.90
  -8   0   2   51.39   32.60
  -8   0  -2   39.30   29.70
   0   1  -2  204.28   10.50
   0   1   2  193.88   10.10
   0   1  -2  192.68   10.10
   0   1   2  188.38   10.30
   0  -1   2  177.38    9.80
   0  -1  -2  194.28    8.30
   0  -1  -2  193.58   10.10
   0   1  -2  195.48   10.00
   0   1   2  207.18    8.00
   0  -1   2  190.78    9.70
   0  -1   2  191.38   10.40
   0  -1  -2  193.88   10.40
   1   1  -2  251.97   12.60
   1  -1   2  255.77   13.40
   1  -1   2  265.07   11.80
   1   1  -2  262.17   13.10
  -1  -1  -2  237.48   13.10
  -1   1   2  239.68   11.90
  -1  -1  -2  259.07   11.10
   1  -1   2  258.97   13.30
  -1  -1  -2  259.77   11.90
  -1  -1  -2  244.88   12.00
  -1  -1   2  247.18   12.20
   1   1   2  284.57   14.30
   1  -1  -2  259.67   13.00
  -1  -1   2  248.68    9.60
   1  -1  -2  239.18   12.10
  -1   1  -2  261.97   14.10
  -1   1  -2  245.48   13.60
  -1   1  -2  265.27   12.00
  -1  -1   2  244.08   13.10
   1   1   2  256.67   11.00
   1  -1  -2  259.87   13.40
   2  -1   2  989.60   42.60
   2  -1   2 1012.00   38.10
  -2  -1  -2 1031.00   41.20
  -2   1   2 1013.30   40.10
  -2  -1  -2 1006.20   42.20
  -2  -1   2 1127.19   36.60
   2  -1  -2 1173.68   43.40
   2   1   2 1119.49   36.00
   2  -1  -2 1149.39   42.00
   2   1   2 1114.09   41.30
  -2   1  -2 1122.99   43.40
   2  -1  -2 1115.69   40.80
  -2  -1   2 1164.38   40.00
  -2   1  -2 1143.59   38.50
  -2  -1   2 1090.29   43.30
  -2  -1   2 1117.59   37.00
  -3   1   2   71.19   10.10
  -3   1   2   59.09    8.70
   3  -1   2   63.19   11.60
   3   1  -2   57.09    6.60
  -3  -1  -2   70.79   12.10
  -3   1  -2   32.60    9.80
  -3  -1   2   32.70    5.60
   3  -1  -2   50.19    8.20
   3  -1  -2   29.50    8.40
  -3  -1   2   48.60    5.80
  -3  -1   2   35.00    9.70
  -3  -1   2   38.00    5.20
  -3   1  -2   37.60    5.00
  -3   1  -2   46.90    5.30
  -4  -1  -2  397.06   26.20
  -4  -1   2  295.07   15.20
  -4   1  -2  299.37   22.70
   4  -1  -2  268.47   23.30
  -4  -1   2  294.37   23.00
  -4  -1   2  295.17   15.40
  -5   1   2   91.99   20.30
  -5  -1  -2   62.99   17.60
   5  -1   2  100.09   20.80
  -5  -1  -2  108.29   16.40
  -5   1   2   67.19    8.80
  -5   1   2   94.79   15.70
  -5  -1   2   73.19   10.40
  -5   1  -2   79.69   17.80
  -5  -1   2   48.00   15.40
  -6  -1  -2  113.09   26.90
  -6   1   2   87.79   23.90
  -6  -1   2   25.40   18.00
  -6  -1   2   17.00    8.30
  -6   1  -2    4.90   18.20
  -6   1  -2   36.60   20.50
  -7   1   2   47.60   26.00
  -7  -1  -2   34.80   23.30
  -7  -1   2   35.20   25.70
  -7   1  -2   43.70   22.20
  -7   1  -2   14.70   20.00
  -8   1   2   22.50   29.60
  -8  -1  -2    8.30   28.90
  -8   1  -2   -9.30   25.60
  -8  -1   2   52.99   30.00
   0   2   2   51.19    6.00
   0  -2  -2   70.29    7.60
   0  -2  -2   65.29    8.10
   0  -2  -2   79.29    9.70
   0  -2   2   58.69    6.90
   0  -2   2   73.99    9.90
   0   2  -2   53.29    6.60
   0   2  -2   66.99    8.10
   0   2  -2   57.99    8.80
   0  -2   2   66.09    7.90
   0   2   2   68.49    8.80
   0   2   2   53.99    6.40
   1   2  -2 1334.47   43.80
  -1  -2  -2 1330.87   47.20
  -1   2   2 1318.87   47.10
   1  -2   2 1297.67   47.00
  -1   2   2 1334.27   48.90
  -1  -2  -2 1334.17   47.70
   1   2  -2 1315.17   49.00
   1   2  -2 1338.57   47.60
  -1   2   2 1313.87   48.20
   1  -2   2 1340.47   49.90
   1   2  -2 1343.27   43.70
   1  -2   2 1359.96   49.20
  -1  -2   2 1282.27   47.10
   1   2   2 1331.47   47.70
  -1   2  -2 1317.97   47.50
   1  -2  -2 1272.57   47.10
  -1  -2   2 1353.76   49.40
   1  -2  -2 1303.67   48.20
   1   2   2 1289.27   46.10
  -1   2  -2 1280.87   48.90
   1   2   2 1284.57   47.50
   1   2   2 1280.17   46.70
  -1   2  -2 1285.57   48.80
   1  -2  -2 1296.47   49.00
   2   2  -2  114.99    9.80
  -2  -2  -2  111.69   10.30
  -2  -2  -2  142.09   12.00
   2  -2   2  119.59   13.50
   2  -2   2  116.59    8.90
  -2  -2   2  141.49    9.60
   2  -2  -2  146.39   12.60
   2  -2  -2  137.59   12.20
   2   2   2  124.19    9.80
   2   2   2  143.99    7.90
   2   2   2  138.49    7.90
  -2   2  -2  138.59   12.50
  -2   2  -2  147.19   10.00
   2  -2  -2  144.49   10.90
  -3   2   2 1009.90   41.70
  -3   2   2  944.81   38.30
  -3  -2  -2  962.10   38.70
   3   2  -2 1009.20   37.30
  -3  -2  -2 1006.70   43.10
   3  -2   2 1050.29   44.80
  -3   2  -2  934.41   36.40
  -3  -2   2  982.30   44.20
  -3  -2   2  877.41   35.90
  -3   2  -2  939.11   42.90
   3  -2  -2  961.80   43.20
  -4   2   2  109.19   16.20
   4   2  -2  103.89    9.20
   4  -2   2  101.99   18.50
  -4   2   2  104.39   11.70
  -4  -2  -2  127.09   19.80
   4  -2  -2  101.99   18.00
  -4   2  -2   85.39    8.30
  -4   2  -2  112.89   18.20
  -4   2  -2   99.09    9.00
  -4  -2   2   80.19    7.90
  -4  -2   2  116.79   19.40
  -5  -2  -2  181.28   17.60
  -5   2   2  206.88   22.60
  -5  -2  -2  209.58   24.60
   5  -2   2  259.77   31.80
  -5  -2   2  168.28   25.60
   5  -2  -2  214.08   28.90
  -5   2  -2  190.98   24.80
  -6   2   2   51.09   20.60
  -6  -2  -2   18.10   10.80
  -6   2   2   28.90   16.30
  -6  -2  -2   20.40   16.70
   6  -2   2   23.50   20.50
  -6  -2   2   -2.60   16.20
  -6   2  -2   18.20   18.10
  -6   2  -2   25.80   18.20
  -7   2   2   86.99   22.80
  -7   2   2   53.79   25.80
  -7  -2  -2   51.29   24.70
  -7   2  -2  125.59   32.30
  -7   2  -2   77.19   25.10
  -7  -2   2   70.99   28.10
   0   3   2 1495.85   55.59
   0   3  -2 1530.85   55.29
   0  -3  -2 1546.95   57.19
   0   3   2 1570.94   56.49
   0  -3   2 1533.95   58.79
   0   3  -2 1570.84   55.79
   0   3  -2 1497.45   56.49
   0  -3  -2 1610.14   56.29
   1  -3   2  920.41   40.30
  -1  -3  -2  918.31   38.20
  -1   3   2  879.31   38.20
   1   3  -2  907.21   38.00
   1   3  -2  908.41   34.60
   1  -3  -2 1012.80   38.50
   1  -3  -2 1067.79   41.20
  -1   3  -2 1054.09   40.50
   1   3   2 1035.70   40.00
  -1   3  -2 1052.59   38.90
   2   3  -2 1629.24   59.29
   2  -3   2 1609.64   63.29
  -2  -3  -2 1620.84   58.89
  -2   3  -2 1634.14   62.99
   2   3   2 1585.94   57.09
   2  -3  -2 1642.34   63.69
   2   3   2 1628.54   57.09
   2  -3  -2 1627.74   62.99
  -2   3  -2 1609.34   59.29
  -2  -3   2 1601.24   62.99
  -3  -3  -2  301.17   18.00
  -3  -3  -2  305.17   22.30
   3  -3   2  331.07   24.20
  -3   3   2  286.07   21.90
   3   3  -2  317.17   18.20
  -3   3   2  314.97   19.40
  -3   3  -2  346.47   18.80
   3   3   2  359.26   15.50
   3   3   2  337.17   16.90
   3  -3  -2  398.76   24.50
  -3  -3   2  304.47   22.70
  -3   3  -2  390.86   25.30
  -4  -3  -2  972.80   47.40
   4  -3   2  858.51   47.30
   4   3  -2  931.21   36.90
  -4   3   2  893.91   44.90
  -4  -3  -2  902.21   38.50
  -4   3   2  928.71   40.00
  -4   3  -2  909.71   37.90
  -4  -3   2  889.11   47.60
   4  -3  -2  941.91   47.50
  -4   3  -2  943.11   47.60
  -5  -3  -2  283.47   20.20
  -5   3   2  264.87   26.70
  -5   3   2  292.87   19.20
  -5  -3  -2  291.97   28.80
   5   3  -2  248.78   12.70
   5  -3   2  242.28   29.60
   5  -3  -2  255.47   28.50
  -5   3  -2  251.87   16.00
  -5  -3   2  245.48   27.40
  -5   3  -2  278.37   27.80
  -6  -3  -2  319.47   34.50
   6  -3   2  364.86   38.00
  -6  -3  -2  320.67   22.10
  -6   3   2  324.77   33.40
  -6   3   2  386.46   38.00
  -6   3   2  304.27   19.80
  -6  -3   2  330.47   35.50
   6  -3  -2  339.47   36.50
  -6   3  -2  308.37   34.40
  -7   3   2   96.89   26.20
  -7   3   2  108.89   30.60
  -7  -3  -2   65.39   24.80
  -7  -3   2  122.29   29.60
  -7   3  -2  134.69   31.50
  -7   3  -2  140.29   33.10
   0  -4  -2    5.20   11.00
   0   4  -2    1.50    5.10
   0   4   2    4.60    5.20
   0  -4  -2   -0.10    5.70
   0  -4   2    6.30    7.40
   0   4  -2    7.40    6.10
   1   4  -2  244.78   13.40
  -1  -4  -2  249.88   16.00
  -1  -4  -2  276.27   17.70
   1   4  -2  284.77   17.40
  -1   4   2  283.97   17.40
   1   4  -2  240.58   13.30
   1  -4   2  245.18   18.60
   1  -4  -2  211.48   16.00
  -1  -4   2  193.38   17.70
   1   4   2  198.18   14.80
  -1   4  -2  197.08   16.00
  -1   4  -2  186.88   15.20
   1  -4  -2  195.98   17.20
  -2  -4  -2   10.90    8.70
   2   4  -2   20.70    7.20
   2   4  -2   19.30    3.50
   2   4  -2   22.80    4.10
   2  -4   2   22.20   10.20
  -2  -4  -2   18.50    7.50
  -2   4   2   13.90    7.60
  -2   4  -2   20.50    8.30
  -2   4  -2   10.80    9.70
  -2  -4   2   23.20   10.10
   2  -4  -2   14.20    8.60
   2  -4  -2    7.30    7.50
   2   4   2    8.30    5.30
  -3  -4  -2  144.49   17.40
  -3  -4  -2  140.99   12.80
   3  -4   2  140.49   20.70
   3   4  -2  129.59   13.30
  -3   4   2  143.19   17.20
  -3   4   2  147.59   14.70
   3  -4  -2  178.88   18.00
   3   4   2  172.08   12.30
  -3   4  -2  177.38   15.10
  -3   4  -2  170.98   19.10
  -3  -4   2  181.28   23.00
  -4  -4  -2   69.59   17.20
   4  -4   2   73.39   28.90
  -4   4   2   58.89   12.60
  -4  -4  -2   64.39   10.50
  -4   4   2   41.20   14.70
   4   4   2   28.90    5.90
  -4   4  -2   60.09   17.20
   4   4   2   34.80    7.20
  -4  -4   2   69.19   29.20
   4  -4  -2   40.20   14.30
  -4   4  -2   42.30   10.90
  -5   4   2  182.28   26.20
  -5   4   2  186.08   18.70
   5   4  -2  207.58   13.70
   5  -4   2  205.48   30.90
  -5  -4  -2  181.78   27.30
  -5  -4  -2  193.38   16.00
   5  -4  -2  275.27   29.50
  -5   4  -2  223.08   18.30
  -5   4  -2  244.28   29.80
  -5  -4   2  260.87   29.40
  -6  -4  -2   29.00   21.00
  -6   4   2   54.19   22.20
  -6   4   2   50.39   12.60
   6  -4   2   45.90   30.40
  -6   4  -2   33.80   21.30
  -6  -4   2   11.40   20.70
   6  -4  -2   32.40   22.80
   7  -4   2   43.60   28.40
  -7   4   2   78.39   30.70
  -7  -4  -2   24.50   23.50
  -7  -4   2    8.40   22.00
  -7   4  -2   47.60   26.70
   0  -5   2  224.78   19.40
   0   5  -2  216.88   16.30
   0   5  -2  233.88   18.00
   0  -5  -2  230.18   18.20
   0   5   2  237.88   17.70
   0  -5  -2  219.38   18.40
  -1   5   2 3211.98  113.49
   1   5  -2 3142.29  108.09
  -1  -5  -2 3184.18  111.79
   1  -5   2 3129.59  116.59
  -1  -5  -2 3345.77  114.59
   1   5  -2 3213.18  113.19
  -1   5  -2 3134.49  112.89
   1  -5  -2 3006.50  114.19
   1   5   2 3169.18  111.69
  -1  -5   2 3193.58  116.69
  -1   5  -2 3140.89  113.49
   1  -5  -2 3059.59  112.99
  -2  -5  -2  203.98   17.60
   2  -5   2  215.58   21.10
   2   5  -2  198.98   13.10
   2   5  -2  209.38   17.10
  -2  -5  -2  223.48   20.30
  -2   5   2  233.88   18.30
   2   5  -2  213.68   12.50
   2   5   2  232.68   16.70
  -2   5  -2  190.38   17.60
  -2   5  -2  237.78   20.90
   2  -5  -2  220.18   19.30
   2  -5  -2  245.58   22.00
  -2  -5   2  259.77   22.20
  -3  -5  -2 2019.70   86.79
  -3   5   2 1970.20   78.79
   3  -5   2 2006.10   83.59
  -3  -5  -2 2041.50   82.19
   3   5  -2 2058.19   76.79
  -3   5   2 2071.19   83.79
  -3  -5   2 2067.29   84.69
   3   5   2 1974.40   73.79
   3  -5  -2 2033.40   82.39
  -3   5  -2 1983.70   77.79
  -3   5  -2 2006.30   83.39
  -4   5   2  188.08   23.00
  -4  -5  -2  199.48   27.50
   4  -5   2  158.78   25.40
  -4  -5  -2  172.88   15.10
   4   5  -2  175.48   17.00
  -4   5   2  196.38   19.10
   4   5   2  197.48   14.40
   4  -5  -2  224.48   25.20
  -4  -5   2  248.78   31.90
  -4   5  -2  175.38   19.20
  -4   5  -2  275.77   32.50
  -5   5   2  891.91   51.39
  -5  -5  -2  836.62   51.79
  -5   5   2  852.11   43.70
   5  -5   2  907.11   55.89
  -5  -5  -2  842.32   34.60
  -5   5  -2  869.91   42.70
  -5  -5   2  877.61   54.39
   5  -5  -2  880.11   53.49
  -5   5  -2  890.21   54.59
  -6  -5  -2   45.40   36.60
  -6   5   2   83.49   20.90
  -6   5   2   54.39   24.70
   6  -5   2   70.39   27.20
  -6  -5   2   79.89   24.70
   6  -5  -2   83.89   27.30
  -6   5  -2   67.89   26.60
  -7   5   2  322.27   46.00
  -7   5   2  284.57   41.10
   7  -5   2  423.46   46.20
  -7  -5  -2  352.16   41.30
  -7   5  -2  255.57   42.30
  -7  -5   2  283.67   44.90
   7  -5  -2  314.27   43.50
   0  -6  -2  126.29   17.70
   0   6  -2  125.79   18.10
   0  -6   2  154.28   21.50
   0   6  -2  131.29   16.40
   0  -6  -2  100.09   15.70
   0   6   2  126.99   18.10
  -1  -6  -2 1436.76   59.69
  -1  -6  -2 1475.85   62.39
   1   6  -2 1552.94   62.19
   1  -6   2 1448.56   64.99
  -1   6   2 1486.55   61.99
   1   6  -2 1423.96   56.29
  -1   6  -2 1463.95   61.79
  -1   6  -2 1398.46   60.89
  -1  -6   2 1441.66   64.89
   1  -6  -2 1480.65   62.19
   1  -6  -2 1374.56   62.29
   1   6   2 1399.96   59.59
  -2  -6  -2   -0.90    7.10
  -2   6   2    3.50    9.40
  -2  -6  -2    6.60   10.40
   2  -6   2   -3.90   12.20
   2   6  -2   14.10    6.90
  -2   6   2   11.60   12.50
   2   6  -2    9.30   10.10
  -2   6  -2    8.50   10.10
   2  -6  -2   -4.20    9.70
  -2   6  -2    1.20   12.70
   2  -6  -2   20.20   12.50
  -2  -6   2   29.70   13.90
   2   6   2   16.90    9.50
  -3   6   2  545.85   38.10
   3  -6   2  524.35   38.00
  -3  -6  -2  552.54   28.30
  -3   6   2  554.94   34.00
  -3  -6  -2  512.45   35.10
   3   6  -2  524.85   31.20
   3  -6  -2  537.55   35.50
  -3   6  -2  543.15   37.50
  -3   6  -2  537.75   32.90
  -3  -6   2  540.55   38.30
   3   6   2  576.44   29.80
  -4   6   2   37.30   18.40
  -4   6   2   33.40   19.20
   4  -6   2   35.30   18.20
   4   6  -2   30.10   12.10
  -4  -6  -2   32.70   17.60
   4   6   2   58.89   11.80
  -4   6  -2   25.10   12.70
   4  -6  -2   54.69   18.60
  -4  -6   2   11.00   17.20
  -4   6  -2    6.00   19.00
   5  -6   2  343.87   38.40
   5   6  -2  380.86   25.30
  -5   6   2  369.16   38.00
  -5   6   2  331.47   29.10
  -5  -6  -2  334.47   35.80
  -5  -6   2  345.37   39.70
  -5   6  -2  437.36   42.00
   5  -6  -2  375.36   36.80
   6  -6   2   62.29   27.00
  -6   6   2   28.70   23.50
  -6  -6  -2   61.89   25.60
  -6   6   2   96.99   18.60
  -6   6  -2   29.50   29.30
   6  -6  -2   31.30   23.70
  -6  -6   2    5.50   24.90
   7  -6   2  281.07   56.39
  -7   6   2  113.19   34.60
  -7   6  -2   83.09   33.80
   0  -7  -2  115.89   19.90
   0   7  -2  127.19   18.60
   0  -7   2  113.79   22.50
   0  -7  -2   99.09   17.10
   0   7  -2   93.19   18.10
   0   7   2   74.39   14.60
   1  -7   2  546.65   39.00
   1   7  -2  551.34   30.30
  -1  -7  -2  533.45   32.80
  -1  -7  -2  599.74   36.90
  -1   7   2  562.74   34.70
   1   7  -2  589.34   35.60
  -1  -7   2  629.14   40.00
   1  -7  -2  555.54   36.30
  -1   7  -2  594.24   36.20
   1   7   2  578.34   34.10
   1  -7  -2  599.74   36.40
  -1   7  -2  578.54   35.00
  -2   7   2   17.00   16.80
  -2  -7  -2   14.80   10.80
  -2   7   2   16.00   15.80
  -2  -7  -2    8.20   11.90
   2   7  -2   18.40   12.70
   2   7  -2   27.80   15.10
   2  -7   2    5.00   15.50
   2  -7  -2   28.40   14.40
  -2   7  -2   17.70   17.80
  -2  -7   2    3.30   14.30
  -2   7  -2    2.10   14.10
   2   7   2   19.20   12.00
   3   7  -2  489.05   31.30
  -3  -7  -2  409.16   33.50
  -3   7   2  426.96   32.00
   3  -7   2  434.16   38.10
  -3  -7  -2  435.26   27.10
   3   7  -2  447.56   19.50
  -3   7   2  478.95   37.10
   3   7   2  511.45   29.80
   3  -7  -2  509.45   35.90
  -3   7  -2  477.95   32.70
  -3  -7   2  484.85   38.40
  -3   7  -2  460.55   36.70
   4   7  -2    3.30   11.70
  -4   7   2    9.50   17.50
  -4   7   2    5.30   13.70
   4  -7   2    8.50   20.70
  -4  -7  -2   27.00   14.40
  -4  -7  -2    2.90    8.90
  -4   7  -2   29.80   20.10
  -4  -7   2  -13.70   16.40
   4  -7  -2   41.40   18.50
   4   7   2   38.60   13.20
  -4   7  -2    7.40   13.10
  -5  -7  -2  154.88   30.50
  -5   7   2  143.39   25.20
   5   7  -2  180.28   21.90
   5  -7   2  177.58   35.30
  -5   7   2  159.58   35.20
  -5   7  -2  127.69   23.60
   5  -7  -2  157.68   32.40
  -5  -7   2  158.68   44.30
  -6  -7  -2   59.39   26.90
   6  -7   2   57.19   27.90
  -6   7   2   30.80   19.10
  -6   7   2  -15.10   24.70
  -6  -7   2   49.99   27.00
  -6   7  -2   65.29   30.40
   6  -7  -2   52.89   26.40
   0   8  -2   69.79   18.10
   0  -8  -2   66.89   17.40
   0  -8   2   55.79   20.60
   0   8  -2   44.30   15.90
   0  -8  -2   78.69   20.00
   0   8   2   59.19   16.80
   1  -8   2  350.16   34.40
  -1  -8  -2  391.76   54.99
   1   8  -2  332.67   24.90
  -1   8   2  372.56   31.10
   1   8  -2  318.07   29.40
  -1   8   2  303.87   28.50
  -1  -8  -2  379.56   27.30
   1   8   2  370.36   28.80
   1  -8  -2  339.37   30.90
  -1  -8   2  307.27   32.50
  -1   8  -2  339.27   30.20
  -1   8  -2  330.07   29.90
  -2   8   2   46.90   20.10
  -2  -8  -2   54.79   17.90
  -2  -8  -2   50.19   14.40
   2  -8   2   35.90   19.90
   2   8  -2   42.70   16.80
  -2   8   2   34.10   16.90
   2   8  -2   51.79   12.30
   2  -8  -2   77.59   20.40
   2   8   2   87.19   17.50
  -2  -8   2   42.20   20.80
  -2   8  -2   47.30   16.20
  -2   8  -2   68.69   23.10
   3   8  -2  442.56   33.70
   3  -8   2  419.76   40.50
  -3   8   2  508.75   40.60
  -3  -8  -2  425.86   36.70
   3   8  -2  465.15   22.10
  -3  -8  -2  457.85   28.70
  -3   8   2  479.55   35.80
  -3   8  -2  476.25   35.80
  -3   8  -2  465.45   41.40
   3  -8  -2  471.55   36.70
  -3  -8   2  427.06   41.50
  -4   8   2   28.50   16.40
   4   8  -2   37.70   14.50
  -4  -8  -2   65.89   23.70
   4  -8   2   32.40   24.20
  -4  -8  -2   19.60   10.70
  -4   8   2   63.59   26.70
   4  -8  -2   52.79   24.10
  -4  -8   2   31.20   21.50
   4   8   2   37.20   14.20
  -4   8  -2   30.50   18.20
  -4   8  -2   34.00   22.80
  -5  -8  -2  131.19   30.80
  -5   8   2  192.18   30.00
  -5   8   2  174.78   35.00
   5   8  -2  193.98   30.90
   5  -8   2  155.68   36.80
  -5   8  -2  203.58   31.90
  -5   8  -2  181.88   37.50
   5  -8  -2  134.19   31.10
  -5  -8   2  134.79   31.50
  -6   8   2  106.59   29.80
   6  -8   2   38.30   30.30
  -6  -8  -2   69.89   27.20
  -6   8   2   22.40   21.50
   6  -8  -2   36.00   27.90
  -6  -8   2   46.70   31.40
  -6   8  -2  124.79   36.70
   0  -9  -2  233.08   27.60
   0  -9  -2  210.08   26.80
   0  -9   2  235.48   35.00
   0   9  -2  214.68   30.00
   0   9  -2  252.07   25.60
   0   9   2  194.28   27.50
   1  -9   2  132.69   28.40
  -1   9   2  125.19   25.80
  -1   9   2   80.19   21.20
   1   9  -2  120.19   25.00
  -1  -9  -2   92.99   19.00
  -1  -9  -2  103.69   22.90
   1   9  -2  132.99   21.60
  -1   9  -2  119.99   24.20
   1   9   2  112.29   21.80
   1  -9  -2  116.99   24.30
  -1   9  -2  150.38   27.30
  -1  -9   2  129.39   26.30
   2  -9   2  119.39   28.60
  -2  -9  -2   48.90   19.30
  -2  -9  -2   83.29   22.80
   2   9  -2   88.69   16.50
   2   9  -2  112.29   23.50
  -2   9   2   72.79   22.50
  -2   9   2   99.49   24.40
  -2   9  -2   84.89   22.00
   2  -9  -2   63.59   23.10
  -2   9  -2  100.29   23.50
   2   9   2   59.39   18.00
  -2  -9   2   63.79   24.90
  -3  -9  -2   49.70   15.70
  -3   9   2   59.19   21.60
  -3  -9  -2   58.59   21.90
  -3   9   2   61.29   24.40
   3   9  -2   53.19   18.60
   3  -9   2   32.10   22.80
  -3   9  -2   49.40   21.20
   3  -9  -2   74.39   24.70
  -3   9  -2   99.09   28.20
   3   9   2  100.69   22.50
  -3  -9   2   39.10   25.60
   4  -9   2   43.00   28.00
  -4   9   2   43.30   26.50
   4   9  -2   59.49   20.70
  -4  -9  -2   28.00   25.20
  -4   9  -2   55.59   24.40
  -4  -9   2   55.49   28.40
   4   9   2   65.49   17.70
   4  -9  -2   49.20   25.80
  -4   9  -2   62.09   29.30
  -5   9   2   60.89   23.50
  -5   9   2   44.70   28.70
  -5  -9  -2   37.50   25.60
   5  -9   2   71.69   31.90
  -5   9  -2   33.10   25.10
  -5  -9   2   20.70   28.10
  -5   9  -2   99.39   34.60
   5  -9  -2   73.59   29.40
   0  10   2   67.69   21.90
   0 -10  -2   84.09   23.90
   0  10  -2   45.40   18.90
   0  10  -2   79.89   24.80
   0 -10   2   45.70   25.40
   0  10   2   40.40   20.60
  -1 -10  -2   77.19   22.20
   1 -10   2   36.80   26.10
  -1  10   2   56.79   23.40
  -1  10   2   38.00   20.30
   1  10  -2   77.29   24.60
   1  10  -2   71.19   19.00
  -1  10  -2   73.29   22.70
   1  10   2   85.79   20.60
  -1  10  -2   49.60   21.00
  -1 -10   2   63.59   28.00
   1 -10  -2   71.99   24.40
   1  10   2   67.09   21.70
   2  10  -2   99.19   18.70
   2 -10   2  109.29   43.10
   2  10  -2  155.68   28.30
  -2  10   2  115.29   29.40
  -2 -10  -2   95.19   25.30
   2  10   2  118.39   24.90
  -2  10  -2  133.39   38.50
   2 -10  -2  109.49   25.70
   2  10   2  138.09   24.00
  -2 -10   2   53.59   30.80
  -2  10  -2  114.49   28.60
   3 -10   2   23.30   25.50
   3  10  -2   -1.80   19.20
  -3  10   2   24.60   26.80
  -3  10   2    9.00   19.00
  -3  10  -2   40.90   24.50
   3  10   2   69.79   23.50
  -3  10  -2   47.00   26.80
   3 -10  -2   13.10   20.40
   3  10   2   51.99   18.80
  -3 -10   2   27.20   25.80
   4 -10   2   55.69   29.40
  -4  10   2   96.69   33.50
  -4  10   2   88.49   25.90
   4  10  -2   51.49   24.70
  -4 -10  -2   90.49   28.10
  -4  10  -2   54.09   25.80
   4 -10  -2   54.79   27.50
  -4  10  -2   55.79   30.10
  -4 -10   2   23.00   25.80
   4  10   2   60.19   21.50
  -5  10   2   29.50   21.70
  -5 -10  -2   42.30   31.30
   5 -10   2  -15.70   29.10
  -5  10   2   74.79   37.30
  -5 -10   2    4.20   30.90
   5 -10  -2   74.19   44.50
  -5  10  -2   35.00   32.60
  -5  10  -2    8.10   24.40
   0  11   2  396.96   40.20
   0  11  -2  411.36   39.40
   0 -11   2  421.66   45.60
   0 -11  -2  442.66   70.29
   0  11  -2  367.36   42.10
   0  11   2  336.97   38.60
   1  11  -2  409.66   37.20
  -1  11   2  368.96   41.10
  -1  11   2  357.56   38.60
   1  11  -2  358.06   40.60
   1 -11   2  295.07   42.90
   1  11   2  313.67   36.40
  -1  11  -2  334.07   40.60
   1  11   2  361.26   37.10
  -1 -11   2  385.56   49.60
   2 -11   2  258.57   39.70
   2  11  -2  184.88   42.10
  -2  11   2  206.28   34.20
   2  11  -2  270.87   36.90
  -2  11   2  259.97   37.80
  -2 -11  -2  270.97   38.50
  -2 -11   2  283.77   41.80
  -2  11  -2  194.08   35.60
   2 -11  -2  240.38   38.00
   2  11   2  311.07   34.80
   2  11   2  322.67   36.30
  -2  11  -2  273.57   39.40
   3 -11   2  107.89   34.60
  -3 -11  -2  124.99   28.50
  -3  11   2  146.79   35.40
  -3  11   2  126.39   31.80
   3  11  -2  100.39   29.90
  -3  11  -2  148.79   34.50
  -3  11  -2   88.79   29.40
   3  11   2  178.28   33.30
   3 -11  -2  180.28   32.20
  -3 -11   2  100.19   31.20
  -4  11   2  132.49   34.70
   4  11  -2  180.98   34.20
  -4 -11  -2  164.78   38.80
  -4  11   2   85.29   45.70
  -4  11  -2  146.19   54.59
  -4  11  -2  145.49   33.90
   4  11   2  209.28   40.90
   4 -11  -2  179.58   39.90
   0 -12   2  -10.40   25.80
   0 -12  -2  -13.10   23.50
   0  12   2   38.50   26.50
   0  12  -2   21.70   25.30
   0  12   2   12.70   26.00
   0  12  -2   40.50   26.60
  -1 -12  -2  -20.70   20.30
  -1  12   2   48.10   25.30
   1  12  -2   37.40   27.20
  -1  12   2   34.10   24.40
   1 -12   2   45.60   27.40
   1  12  -2  -11.80   26.60
  -1  12  -2   -2.40   23.30
  -1 -12   2   47.20   28.30
   1  12   2   27.40   23.80
   1  12   2   30.10   23.40
   1 -12  -2   22.30   27.20
  -1  12  -2   21.20   28.00
  -2 -12  -2   23.70   24.70
   2  12  -2   63.19   26.60
  -2  12   2  -13.50   22.70
   2 -12   2   31.00   26.90
  -2  12   2    6.80   27.60
   2 -12  -2    0.40   22.20
  -2  12  -2   77.09   32.60
  -2  12  -2   36.40   28.00
  -2 -12   2   51.29   31.70
   2  12   2    1.90   23.40
   2  12   2  -46.40   35.70
   0   0   3   -0.30    3.10
   0   0  -3    1.20    4.30
   0   0  -3   -0.90    3.70
   0   0  -3    0.30    2.00
   1   0   3  312.17   16.10
  -1   0   3  311.07   14.10
  -1   0  -3  316.37   14.20
  -1   0   3  324.87   15.50
  -1   0   3  319.77   14.20
  -1   0  -3  316.67   14.20
   1   0   3  320.27   14.20
  -1   0   3  304.27   14.00
   1   0  -3  309.87   14.60
   1   0  -3  315.77   15.70
  -1   0  -3  357.06   17.20
   1   0   3  321.57   14.00
   2   0   3   19.80    6.20
  -2   0   3    7.90    6.00
   2   0   3   19.80    3.50
  -2   0  -3   22.20    7.90
   2   0  -3   16.30    5.50
  -2   0   3    9.30    4.10
  -2   0  -3   16.70    4.00
   2   0  -3   14.90    5.60
  -3   0   3   60.79    7.60
  -3   0   3   72.69    8.10
   3   0   3   88.49   13.70
  -3   0   3   89.59   14.10
   3   0  -3   62.09    8.90
  -3   0  -3  111.49   14.50
  -4   0  -3   -1.10    8.70
  -4   0   3   -6.80    6.20
  -4   0  -3    3.60    9.70
   4   0  -3   -7.80    4.90
   4   0   3   -6.90    7.70
  -4   0   3    2.90    9.90
  -5   0   3   74.69   19.50
  -5   0   3   50.59    9.00
  -5   0  -3   42.30   16.00
  -5   0  -3   70.79   16.30
  -6   0   3    3.10   15.50
  -6   0  -3   23.50   26.30
  -6   0  -3    8.40   16.80
  -6   0   3    4.20   10.40
  -7   0  -3   10.30   21.60
  -7   0   3  -20.00   20.70
   0   1  -3 1508.05   53.19
   0  -1  -3 1570.54   54.99
   0   1   3 1530.85   54.59
   0   1  -3 1566.44   54.19
   0  -1   3 1482.55   53.79
   0   1   3 1530.35   53.89
   0  -1   3 1542.25   53.59
   0   1  -3 1520.75   53.59
   0  -1   3 1579.54   53.59
   0   1   3 1540.85   49.10
   0  -1  -3 1566.84   53.99
   1  -1   3 5495.45  176.48
   1   1  -3 5333.97  173.08
  -1   1   3 5418.06  176.18
   1  -1   3 5275.97  176.78
  -1   1   3 5348.47  173.78
  -1   1   3 5411.76  176.18
   1  -1   3 5466.95  175.58
  -1  -1  -3 5389.76  173.58
   1   1  -3 5541.25  176.08
  -1  -1  -3 5373.56  176.68
   1   1  -3 5241.98  175.38
  -1  -1  -3 5358.06  173.58
  -1  -1  -3 5426.86  174.08
   1  -1  -3 5418.86  176.38
  -1   1  -3 5507.75  174.98
   1  -1  -3 5262.87  173.88
   1  -1  -3 5460.15  176.38
   1   1   3 5447.46  174.18
  -1  -1   3 5235.08  175.58
  -1  -1   3 5351.36  172.88
   1   1   3 5351.16  176.68
  -1   1  -3 5314.87  175.58
  -1  -1   3 5434.66  175.78
  -1   1  -3 5459.25  177.18
   2  -1   3  343.07   16.30
   2   1  -3  361.76   13.80
  -2  -1  -3  355.16   14.10
   2   1  -3  367.76   17.80
  -2   1   3  352.76   18.60
  -2  -1  -3  361.66   18.60
   2  -1   3  353.66   19.20
  -2  -1  -3  366.26   19.60
  -2  -1   3  327.47   19.20
   2  -1  -3  334.97   17.90
  -2   1  -3  339.27   20.10
  -2   1  -3  346.17   15.70
   2  -1  -3  380.36   18.90
   2  -1  -3  332.07   18.40
  -2  -1   3  315.57   16.50
   2   1   3  322.07   13.80
  -2  -1   3  331.47   13.50
  -3  -1  -3 3050.09  110.49
  -3   1   3 3087.49  107.49
   3  -1   3 3093.49  102.09
   3   1  -3 3106.89  106.09
   3  -1   3 2983.60  110.99
   3  -1  -3 3181.78  107.19
   3  -1  -3 3182.28  111.49
  -3  -1   3 3149.88  102.09
  -3   1  -3 3115.89  110.99
  -3  -1   3 3140.59  101.89
  -3   1  -3 3135.89  102.29
  -3  -1   3 3157.78  111.89
   4   1  -3  299.87   17.20
   4  -1   3  310.67   24.90
  -4   1   3  299.37   20.00
  -4  -1  -3  328.27   22.40
  -4   1   3  301.17   24.00
  -4  -1  -3  275.77   23.60
  -4  -1   3  306.97   15.30
  -4   1  -3  333.67   24.60
   4  -1  -3  325.77   18.70
  -4  -1   3  338.17   25.60
  -5   1   3 1438.16   56.99
  -5   1   3 1361.66   58.29
  -5   1   3 1384.26   66.49
  -5  -1  -3 1391.86   60.29
  -5  -1  -3 1354.06   65.39
   5   1  -3 1330.77   50.59
  -5  -1   3 1365.06   54.99
  -5  -1   3 1467.95   50.29
  -5  -1   3 1534.15   68.29
  -5   1  -3 1486.65   63.59
  -6  -1  -3  231.18   25.80
  -6   1   3  250.57   34.70
  -6   1   3  221.58   23.50
  -6  -1  -3  233.78   30.80
  -6   1  -3  250.57   30.40
  -6  -1   3  245.28   34.90
  -6   1  -3  290.87   33.30
  -7  -1  -3  446.36   36.60
  -7  -1  -3  393.36   41.40
  -7   1   3  391.26   43.10
  -7   1  -3  588.04   43.30
  -7  -1   3  461.75   48.80
  -7   1  -3  483.75   44.90
   0   2  -3  216.98   14.10
   0   2  -3  233.88   13.70
   0  -2   3  226.38   14.70
   0  -2  -3  232.08   13.50
   0   2  -3  240.38   13.20
   0  -2   3  220.18   13.00
   0   2   3  213.18   13.70
   0  -2   3  223.98   12.30
   0   2   3  225.48   10.80
   0   2   3  230.28   13.30
   0  -2  -3  247.38   14.70
   0  -2  -3  231.08   11.00
  -1  -2  -3  827.42   30.80
  -1   2   3  845.12   32.30
  -1  -2  -3  805.82   31.10
  -1  -2  -3  809.02   33.30
   1   2  -3  827.62   32.90
   1  -2   3  814.42   33.40
   1  -2   3  797.92   31.60
   1   2  -3  811.82   28.90
   1  -2  -3  798.32   33.10
  -1  -2   3  814.12   33.70
  -1   2  -3  808.82   34.00
   1  -2  -3  785.02   33.50
  -1  -2   3  776.02   28.60
   1   2   3  812.22   31.20
  -1   2  -3  793.52   32.10
   1  -2  -3  801.32   30.80
   2  -2   3  123.69    9.50
  -2  -2  -3  138.89   12.20
   2   2  -3  121.49   10.80
  -2  -2  -3  138.59   12.00
   2  -2   3  163.38   15.40
   2   2   3  138.39    8.60
  -2   2  -3  147.69   10.60
   2  -2  -3  148.09   13.40
  -2   2  -3  149.79   13.60
  -2  -2   3  158.68   13.80
   2  -2  -3  149.39   12.10
   2   2   3  148.39    8.80
   2  -2  -3  142.29   12.40
  -3   2   3  878.71   38.70
  -3  -2  -3  901.11   39.90
  -3  -2  -3  971.80   41.60
   3  -2   3  856.81   41.30
   3  -2   3  864.21   33.80
   3   2  -3  888.71   36.10
  -3  -2   3  857.81   41.10
   3  -2  -3  900.11   39.60
  -3   2  -3  846.42   40.50
   3   2   3  861.51   29.20
   3  -2  -3  830.92   39.90
  -3   2  -3  865.01   34.10
   3  -2  -3  856.21   39.90
   4   2  -3    3.90    6.20
  -4   2   3  -16.00    7.50
  -4  -2  -3   -1.60    7.90
  -4  -2  -3    1.40    9.70
   4  -2   3    0.30   11.20
  -4   2   3   12.50    7.30
  -4   2  -3    6.30    5.10
  -4   2  -3    1.00    5.50
  -4  -2   3   12.80   11.90
  -4   2  -3   -1.50   11.50
   4  -2  -3    3.00    8.80
  -5   2   3  255.17   24.00
   5   2  -3  274.47   15.50
  -5  -2  -3  277.97   22.90
   5  -2   3  273.37   28.90
  -5   2   3  324.67   28.70
  -5  -2  -3  274.47   27.00
  -5   2   3  268.47   18.50
  -5   2  -3  275.47   28.70
  -5  -2   3  273.37   28.30
  -6  -2  -3    8.90   11.70
  -6   2   3   29.70   16.10
  -6   2   3    0.10   16.70
  -6  -2  -3    4.70   17.10
   6  -2   3    2.50   18.60
  -6   2  -3   15.10   18.50
  -6   2  -3   17.60   19.00
  -6  -2   3   16.80   18.70
  -7  -2  -3   35.00   23.60
  -7   2   3   36.20   19.60
  -7   2   3   51.29   26.50
  -7   2  -3   47.20   24.80
  -7  -2   3   50.19   25.20
  -7   2  -3   94.89   29.90
   0  -3  -3 1669.13   59.49
   0  -3   3 1676.13   61.79
   0   3   3 1667.13   61.09
   0  -3   3 1664.33   63.69
   0   3  -3 1673.03   61.89
   0   3  -3 1708.13   60.59
   0  -3  -3 1718.93   62.99
   0  -3  -3 1680.53   61.69
   0   3   3 1669.53   59.29
  -1  -3  -3  672.23   30.30
   1   3  -3  694.13   26.40
  -1  -3  -3  700.53   28.90
  -1   3   3  656.03   28.60
   1   3  -3  660.53   30.00
   1   3  -3  681.63   26.30
   1  -3   3  687.23   32.10
   1   3   3  726.43   29.20
  -1   3  -3  710.73   30.50
  -1  -3   3  674.53   31.50
  -1   3  -3  704.53   31.60
   1   3   3  626.64   27.80
   1  -3  -3  727.93   35.10
   1  -3  -3  651.13   30.80
   1  -3  -3  662.33   28.40
  -2   3  -3  580.64   30.60
   2   3   3  593.04   24.60
  -2  -3   3  568.14   30.10
  -2   3  -3  573.84   26.80
   2  -3  -3  589.04   28.40
   2  -3  -3  551.44   29.70
  -3  -3  -3  310.67   22.10
  -3   3   3  336.67   20.30
   3  -3   3  311.37   23.70
  -3   3   3  326.17   22.70
   3   3  -3  333.57   19.80
   3  -3  -3  316.97   23.20
   3  -3  -3  277.77   21.40
  -3   3  -3  324.87   24.80
  -3   3  -3  297.57   18.40
  -3  -3   3  315.97   23.80
   3   3   3  318.97   14.80
   4   3  -3  246.08   20.10
  -4  -3  -3  256.27   19.00
  -4  -3  -3  264.27   23.20
  -4   3   3  257.87   18.30
   4  -3   3  239.48   24.70
  -4   3   3  272.87   23.00
  -4   3  -3  239.08   25.10
  -4  -3   3  197.18   26.30
   4  -3  -3  184.28   21.60
  -4   3  -3  193.08   15.20
   5   3  -3  133.69   12.20
  -5  -3  -3  153.38   24.80
  -5   3   3  187.68   24.10
   5  -3   3  174.88   29.30
  -5   3   3  146.29   16.10
  -5  -3  -3  157.38   16.60
   5  -3  -3   93.39   22.50
  -5   3  -3  117.89   12.20
  -5   3  -3  108.59   23.50
  -5  -3   3   91.39   23.10
  -6   3   3  206.18   18.10
   6  -3   3  324.97   41.30
  -6  -3  -3  226.88   20.20
  -6  -3  -3  249.08   34.90
  -6   3   3  294.37   37.00
  -6   3   3  292.27   30.10
  -6  -3   3  205.08   33.20
  -6   3  -3  198.88   30.60
  -7   3   3   60.79   25.40
  -7   3   3   79.99   29.80
  -7  -3  -3  109.09   28.80
  -7   3  -3   84.99   44.30
  -7   3  -3   47.80   25.00
  -7  -3   3   68.29   26.00
   0  -4   3  836.92   38.50
   0   4  -3  811.62   34.60
   0  -4  -3  795.12   34.50
   0  -4  -3  798.62   36.70
   0   4   3  795.12   35.50
   0   4  -3  825.12   36.60
  -1   4   3   95.99   11.30
   1   4  -3   96.79    8.80
   1   4  -3   81.39    8.70
  -1  -4  -3  101.99   12.80
   1   4  -3   94.29   13.30
   1  -4   3  115.19   16.80
  -1  -4  -3   88.39   16.20
   1  -4  -3   94.59   10.90
   1   4   3  118.29   15.50
  -1   4  -3   97.79   13.40
   1  -4  -3  102.59   14.20
  -1   4  -3   97.39   12.10
  -1  -4   3  103.49   15.10
  -2   4   3  466.85   25.90
   2   4  -3  485.65   25.50
   2   4  -3  468.05   17.40
   2   4  -3  461.35   17.40
  -2  -4  -3  492.85   26.60
   2  -4   3  468.35   28.40
  -2   4  -3  469.25   25.50
   2  -4  -3  467.55   25.90
   2  -4  -3  467.25   27.80
  -2  -4   3  476.45   28.20
  -2   4  -3  432.86   28.10
   2   4   3  452.55   23.00
   3  -4   3  135.29   19.70
  -3   4   3  136.69   19.10
   3   4  -3  126.99   13.90
  -3  -4  -3  129.09   13.50
  -3  -4  -3  169.58   20.80
  -3   4   3  130.09   16.90
  -3   4  -3  126.69   15.80
   3   4   3  122.49   10.80
  -3   4  -3  163.08   21.90
  -3  -4   3  161.88   23.10
   3  -4  -3  111.99   18.90
   3  -4  -3   99.49   16.80
  -4  -4  -3  198.48   16.00
  -4   4   3  139.69   16.10
  -4   4   3  170.38   22.90
   4  -4   3  195.38   26.80
   4   4  -3  194.08   16.50
  -4  -4  -3  174.18   23.60
  -4  -4   3  134.29   23.20
   4   4   3  142.69    9.30
   4  -4  -3  195.48   24.60
  -4   4  -3  141.39   15.80
   4   4   3  136.19   10.10
  -5   4   3   40.50   17.40
   5  -4   3   16.40   16.10
  -5  -4  -3   25.20    9.70
  -5  -4  -3   40.20   17.70
  -5   4   3    5.40   11.60
  -5  -4   3   16.90   16.60
  -5   4  -3   24.90    9.90
   5  -4  -3    7.60   15.20
  -5   4  -3   25.40   19.50
  -6   4   3   46.10   13.70
  -6   4   3   57.59   23.40
  -6  -4  -3   97.99   26.00
  -6   4  -3   59.29   25.00
   6  -4  -3   83.99   25.50
   7  -4   3   19.70   25.40
  -7   4   3   46.00   29.70
  -7  -4  -3   19.20   22.70
  -7  -4   3   33.00   26.40
  -7   4  -3   54.79   27.80
   0   5  -3  138.59   14.10
   0   5  -3  142.29   15.40
   0  -5  -3  139.79   14.80
   0   5   3  135.39   14.30
   0  -5   3  186.28   22.70
   0  -5  -3  131.79   15.70
  -1   5   3  485.05   26.90
  -1  -5  -3  439.36   26.10
   1  -5   3  449.46   30.00
  -1  -5  -3  468.35   26.40
   1   5  -3  449.66   22.80
   1   5  -3  468.95   27.10
  -1   5  -3  450.55   26.90
   1  -5  -3  440.26   25.30
  -1  -5   3  482.55   30.50
   1   5   3  441.96   25.20
   1  -5  -3  503.45   29.60
  -1   5  -3  451.75   27.50
  -2   5   3  373.36   24.90
   2   5  -3  334.77   24.10
   2   5  -3  382.76   17.80
   2  -5   3  367.16   27.90
  -2  -5  -3  356.86   24.50
  -2  -5  -3  384.56   24.10
   2  -5  -3  465.35   29.90
  -2   5  -3  412.46   28.00
   2  -5  -3  440.26   26.00
   2   5   3  457.95   23.70
  -2  -5   3  458.95   29.70
  -2   5  -3  424.56   25.90
   3   5  -3  241.68   19.50
  -3   5   3  240.18   23.50
  -3  -5  -3  214.98   22.10
  -3  -5  -3  205.58   17.80
   3  -5   3  183.78   24.80
  -3   5   3  226.38   20.60
   3  -5  -3  201.18   21.20
  -3   5  -3  192.98   24.40
   3  -5  -3  217.88   24.50
   3   5   3  181.98   15.30
  -3   5  -3  245.48   20.30
  -3  -5   3  192.18   25.40
  -4  -5  -3  214.98   28.70
  -4  -5  -3  164.78   16.90
   4  -5   3  222.28   30.40
  -4   5   3  156.88   23.50
   4   5  -3  188.28   19.40
  -4   5   3  179.08   19.40
  -4  -5   3  300.17   29.90
   4  -5  -3  266.07   26.10
   5   5  -3  215.58   18.90
  -5  -5  -3  217.48   17.40
   5  -5   3  213.38   33.20
  -5  -5  -3  240.78   32.50
  -5   5   3  273.67   29.00
  -5   5   3  224.18   27.00
   5  -5  -3  220.88   30.00
  -5   5  -3  171.38   20.60
  -5   5  -3  289.77   38.10
  -5  -5   3  222.18   34.60
  -6   5   3   10.00   21.90
  -6   5   3   -8.30   12.70
   6  -5   3   11.30   22.10
  -6  -5  -3   14.90   34.00
  -6  -5   3   34.80   23.90
   6  -5  -3   44.10   23.10
  -7  -5  -3   93.39   29.80
   7  -5   3   56.79   26.20
  -7   5   3   46.90   29.10
  -7   5   3  103.49   31.60
  -7  -5   3   96.69   31.40
  -7   5  -3   37.30   27.90
   0   6   3   41.80   11.20
   0  -6  -3   48.50   13.10
   0  -6   3   54.99   14.90
   0  -6  -3   43.20   12.50
   0   6  -3   56.69   12.90
   0   6  -3   61.99   14.50
  -1   6   3   56.29   12.70
   1   6  -3   58.99   14.00
   1   6  -3   77.59   12.00
   1  -6   3   70.49   17.70
  -1  -6  -3   42.50   13.10
  -1  -6  -3   63.09   14.80
   1  -6  -3   88.39   17.20
  -1   6  -3   76.09   15.10
  -1  -6   3   75.29   18.30
   1  -6  -3   78.29   14.60
  -1   6  -3   68.49   16.30
   1   6   3   84.79   14.70
   2   6  -3   25.90    7.70
   2   6  -3   24.70   11.50
  -2   6   3   28.60   12.20
  -2  -6  -3   62.79   14.80
   2  -6   3   11.50   12.00
  -2  -6  -3   24.00   10.50
  -2   6  -3   22.50   11.70
   2  -6  -3   21.90   11.40
  -2  -6   3   44.90   15.20
  -2   6  -3   20.60   12.50
   2  -6  -3   29.50   14.00
   2   6   3   31.10   10.20
  -3   6   3   13.00   11.50
  -3  -6  -3   43.80   15.20
  -3  -6  -3   27.00    9.90
  -3   6   3   33.60   18.20
   3  -6   3   20.50   15.70
   3   6  -3    6.50   10.80
  -3   6  -3   13.10   11.60
   3   6   3   27.90    9.90
   3  -6  -3   23.90   12.50
  -3  -6   3   10.50   15.30
  -3   6  -3    2.50   13.10
  -4  -6  -3   16.40    9.40
  -4  -6  -3    2.90   14.50
   4   6  -3    4.60   11.20
  -4   6   3    3.70   16.40
  -4   6   3   -1.30    9.90
   4  -6   3    3.40   16.40
  -4  -6   3    6.80   16.10
   4   6   3    8.40    8.60
  -4   6  -3    9.30   18.90
   4  -6  -3  -16.30   13.70
  -4   6  -3   -3.20   11.70
   5   6  -3    4.00   11.90
  -5   6   3   21.60   13.70
  -5  -6  -3   28.50    9.60
  -5   6   3   16.00   21.00
  -5  -6  -3    6.90   18.10
   5  -6   3   15.10   20.50
   5  -6  -3   38.90   20.10
  -5   6  -3   58.39   24.40
  -5  -6   3   26.10   22.20
   6  -6   3   17.30   26.80
  -6  -6  -3    0.10   19.70
  -6   6   3   11.20   15.30
  -6   6   3   22.70   24.90
  -6   6  -3   19.70   25.00
  -6  -6   3   24.40   26.50
   6  -6  -3   29.10   22.40
   7  -6   3   50.99   30.80
  -7   6   3   76.39   32.40
  -7  -6   3   18.00   30.60
  -7   6  -3   30.60   32.00
   0  -7  -3  918.61   46.10
   0  -7   3  893.91   49.99
   0   7  -3  938.21   44.80
   0  -7  -3  902.91   46.70
   0   7   3  896.91   46.00
   0   7  -3  874.81   46.10
   1   7  -3   39.70   11.50
  -1   7   3   31.80   12.40
  -1  -7  -3   12.50   10.40
   1   7  -3   31.60   15.10
  -1  -7  -3   37.90   14.30
   1  -7   3   39.70   17.40
   1  -7  -3   30.40   14.80
   1   7   3   23.40   10.80
  -1   7  -3   38.20   14.40
   1  -7  -3   33.80   13.40
  -1  -7   3   23.90   15.70
  -1   7  -3   31.60   14.20
  -2  -7  -3  911.01   43.10
   2   7  -3  825.52   40.50
  -2   7   3  851.31   45.90
  -2  -7  -3  882.51   46.60
   2  -7   3  889.41   50.99
   2   7  -3  907.31   46.10
   2  -7  -3  774.82   47.90
  -2  -7   3  794.32   48.20
  -2   7  -3  778.82   46.40
   2  -7  -3  770.12   44.60
   2   7   3  772.62   41.60
   3  -7   3   50.39   20.70
  -3  -7  -3   68.09   14.10
  -3   7   3   57.69   16.80
   3   7  -3   46.70   15.70
  -3   7   3   62.19   21.90
  -3  -7  -3   40.90   17.10
  -3   7  -3   56.99   16.80
  -3   7  -3   79.19   24.50
  -3  -7   3   54.49   19.60
   3  -7  -3   60.29   17.90
   3   7   3   39.70   12.50
   4  -7   3  494.75   43.70
  -4  -7  -3  529.05   39.20
  -4  -7  -3  491.15   28.60
   4   7  -3  492.05   33.40
  -4   7   3  462.95   33.90
  -4   7   3  495.75   42.20
  -4   7  -3  507.75   42.50
  -4   7  -3  443.86   34.40
  -4  -7   3  460.25   42.10
   4   7   3  509.35   30.20
   4  -7  -3  538.25   39.60
   5   7  -3    2.00   14.80
  -5   7   3   18.90   17.50
  -5  -7  -3   21.50   19.00
   5  -7   3   44.10   27.00
  -5  -7   3  -22.90   18.40
  -5   7  -3    4.10   16.70
   5  -7  -3   29.10   20.80
  -5   7  -3    3.20   20.80
   6  -7   3  183.48   37.20
  -6   7   3  211.48   36.40
  -6  -7  -3  162.38   33.90
  -6   7   3  156.08   26.70
  -6   7  -3  187.78   36.30
   6  -7  -3  153.88   34.30
  -6  -7   3  150.48   35.80
   0  -8   3  178.68   29.20
   0   8   3  178.88   24.80
   0   8  -3  216.68   22.80
   0  -8  -3  200.38   26.20
   0  -8  -3  176.88   26.30
   0   8  -3  179.88   26.20
   1   8  -3   30.60   14.60
  -1   8   3   28.90   14.30
   1  -8   3   55.89   19.70
  -1  -8  -3   35.40   17.10
   1   8  -3   46.30   13.60
  -1  -8  -3   67.49   16.00
   1  -8  -3   24.80   15.90
   1  -8  -3   45.10   17.80
  -1  -8   3   48.00   18.50
   1   8   3   35.60   14.80
  -1   8  -3   38.70   16.70
  -1   8  -3   57.99   17.90
  -2  -8  -3  164.48   20.70
   2   8  -3  174.38   17.30
  -2  -8  -3  162.18   25.90
   2  -8   3  181.48   31.00
   2   8  -3  157.08   24.60
  -2   8   3  191.48   31.30
  -2   8   3  178.98   25.80
  -2  -8   3  139.09   26.60
  -2   8  -3  207.48   30.30
  -2   8  -3  156.68   25.00
   2   8   3  204.18   23.10
   2  -8  -3  186.18   26.50
   2  -8  -3  159.58   27.10
  -3  -8  -3  107.69   23.60
  -3   8   3   99.89   21.80
  -3   8   3  112.29   28.10
  -3  -8  -3  122.79   18.40
   3  -8   3  110.19   27.70
   3   8  -3   95.99   22.30
  -3  -8   3   98.09   26.50
  -3   8  -3  121.39   22.70
  -3   8  -3  119.79   28.10
   3   8   3  106.39   22.40
   3  -8  -3  108.39   23.20
  -4   8   3   89.29   22.40
  -4  -8  -3  107.89   25.20
  -4  -8  -3  141.79   17.70
  -4   8   3   79.09   26.00
   4  -8   3  109.79   32.60
   4   8  -3   69.09   17.40
  -4  -8   3   54.09   24.70
   4   8   3   86.19   17.30
  -4   8  -3   96.59   24.40
  -4   8  -3   93.89   31.60
   4  -8  -3   89.79   24.80
  -5   8   3   14.00   24.90
  -5   8   3   42.70   26.40
   5   8  -3   23.00   19.10
  -5  -8  -3    7.70   20.60
   5  -8   3    1.00   23.50
   5  -8  -3   28.60   23.70
  -5   8  -3   43.30   31.90
  -5   8  -3   33.00   21.50
  -5  -8   3    6.80   24.50
   6  -8   3   20.60   38.80
  -6   8   3   52.49   28.70
  -6   8   3    9.20   20.60
  -6  -8  -3   77.69   28.80
   6  -8  -3   35.10   26.60
  -6   8  -3    9.90   33.60
   0   9  -3  121.39   25.90
   0   9   3  132.69   25.20
   0  -9  -3  134.49   24.80
   0  -9   3  108.29   27.70
   0   9  -3  128.29   22.70
   0  -9  -3  136.49   25.60
  -1  -9  -3 1105.09   57.49
  -1  -9  -3 1063.69   55.29
  -1   9   3 1036.00   57.59
   1   9  -3 1046.70   58.39
   1  -9   3 1072.79   63.49
   1   9  -3 1024.70   51.19
  -1   9  -3 1023.20   56.69
  -1  -9   3 1015.40   60.29
   1  -9  -3 1111.59   58.09
   1   9   3  993.70   55.59
   1  -9  -3  977.10   58.09
  -2  -9  -3   50.29   19.90
  -2   9   3   93.99   27.70
   2   9  -3   44.00   19.10
   2  -9   3   38.80   24.60
   2   9  -3   35.00   13.50
  -2  -9  -3   27.40   14.60
  -2   9   3   39.70   19.70
  -2   9  -3   86.69   24.30
   2  -9  -3   25.80   18.40
   2   9   3   44.00   17.30
  -2   9  -3   49.60   19.80
  -2  -9   3   47.60   23.70
  -3  -9  -3  377.26   38.30
  -3   9   3  373.96   36.60
   3   9  -3  425.36   36.80
  -3  -9  -3  458.85   45.70
   3  -9   3  454.25   45.60
  -3   9   3  412.56   40.80
  -3  -9   3  434.26   44.70
  -3   9  -3  412.96   44.10
   3  -9  -3  434.46   38.90
  -3   9  -3  445.76   38.50
   3   9   3  488.55   35.50
   4  -9   3   20.90   25.20
  -4   9   3   17.90   24.20
  -4   9   3    2.00   16.10
   4   9  -3   19.70   19.20
  -4   9  -3   70.99   29.90
   4  -9  -3    3.50   19.60
  -4   9  -3   36.20   28.90
  -4  -9   3   60.79   29.10
   4   9   3   31.10   17.60
  -5   9   3  353.16   49.90
   5  -9   3  349.67   51.29
  -5  -9  -3  416.46   45.90
  -5   9   3  369.66   39.40
  -5  -9   3  408.66   49.20
  -5   9  -3  407.56   51.29
  -5   9  -3  431.76   42.60
   5  -9  -3  503.95   46.50
   0 -10  -3   12.40   19.50
   0  10   3  -16.60   16.80
   0 -10  -3   36.70   19.30
   0  10  -3   17.10   20.80
   0 -10   3   13.60   21.90
   0  10   3   26.90   19.90
   0  10  -3   15.80   15.80
  -1  10   3   56.59   22.80
   1  10  -3   62.29   22.00
   1 -10   3   85.19   29.20
   1  10  -3   88.59   20.20
  -1  10   3   88.69   29.10
  -1 -10  -3   60.29   22.30
  -1 -10  -3   80.69   25.00
   1 -10  -3   62.79   24.10
  -1  10  -3   64.29   23.10
   1  10   3   59.39   20.10
  -1  10  -3   97.29   25.40
  -1 -10   3   66.39   27.60
  -2  10   3   28.10   28.00
  -2 -10  -3    3.50   15.20
   2  10  -3   15.70   15.60
   2 -10   3   58.79   40.50
  -2 -10  -3   10.30   19.10
   2  10  -3   10.00   19.00
   2 -10  -3   19.60   19.40
   2  10   3  -10.80   14.80
  -2 -10   3  -18.20   34.10
  -2  10  -3   22.10   23.10
  -3  10   3   -1.70   19.70
  -3 -10  -3   22.30   16.10
   3 -10   3   28.50   26.60
  -3  10   3   29.80   29.00
   3  10  -3   68.29   23.70
   3  10   3   40.40   19.80
  -3  10  -3   35.70   24.90
   3 -10  -3   49.80   37.70
  -3 -10   3  -10.30   22.50
  -3  10  -3   27.60   26.80
   4  10  -3   21.60   26.20
  -4  10   3   25.10   22.20
   4 -10   3    4.90   25.90
  -4  10   3   51.29   26.90
  -4 -10  -3   59.99   25.40
   4  10   3   34.20   21.40
  -4 -10   3   64.89   30.00
  -4  10  -3   67.69   33.20
  -4  10  -3  -18.60   24.20
   4 -10  -3   42.60   24.30
   0  11   3  115.59   28.50
   0  11  -3   74.79   26.30
   0 -11   3   99.79   34.20
   0  11  -3   75.59   26.70
   0 -11  -3   81.39   26.70
   1  11  -3  235.08   36.70
   1  11  -3  223.78   30.70
  -1  11   3  269.27   38.70
   1 -11   3  189.88   39.20
  -1  11   3  223.98   35.60
  -1  11  -3  214.48   36.50
   1  11   3  299.57   36.70
  -1  11  -3  180.58   49.50
  -1 -11   3  295.17   44.90
   1  11   3  190.28   32.10
  -2  11   3   50.49   23.50
  -2  11   3   75.69   28.60
   2 -11   3   60.19   30.90
   2  11  -3   57.49   25.60
  -2 -11  -3   30.30   24.20
   2  11   3   46.20   22.80
  -2  11  -3   22.00   25.00
   2  11   3   54.49   25.20
  -2  11  -3   46.50   25.90
  -2 -11   3   59.39   29.00
   2 -11  -3    5.80   19.80
   3  11  -3  278.17   40.00
  -3  11   3  209.78   35.10
  -3 -11  -3  152.78   33.00
  -3  11   3  178.58   38.50
   3 -11   3  128.59   36.80
  -3  11  -3  193.08   35.30
   3 -11  -3  197.08   38.50
  -3  11  -3  208.58   41.00
   3  11   3  252.77   36.00
  -3 -11   3  158.98   35.40
   4  11  -3   51.29   29.60
  -4 -11  -3   60.19   28.90
  -4  11   3   53.49   32.00
   4 -11   3   40.90   32.40
  -4  11  -3   14.50   27.70
  -4  11  -3   32.60   31.50
  -4 -11   3   34.10   30.60
   4 -11  -3    3.60   27.30
   0  12   3   27.00   25.20
   0  12  -3   18.20   25.40
   0  12  -3   45.70   27.00
   0 -12  -3   -0.10   24.70
   0 -12   3    2.20   25.80
   0  12   3   16.00   22.90
   1 -12   3   45.60   26.80
  -1  12   3   60.29   27.80
  -1 -12  -3   -9.60   23.80
   1  12  -3   13.60   24.50
  -1  12   3   15.70   23.80
   1  12  -3    8.10   27.00
  -1  12  -3   33.40   28.10
   1  12   3   12.50   23.30
  -1  12  -3   33.90   30.10
   1  12   3   26.40   25.00
  -1 -12   3   -4.90   24.80
   1 -12  -3   12.90   24.30
  -2 -12  -3    1.40   25.20
  -2  12   3   29.00   26.90
   2 -12   3   48.80   31.60
  -2  12   3    3.60   26.20
   2  12  -3    1.90   23.60
  -2  12  -3  -23.00   26.80
   2  12   3   21.60   24.10
   2 -12  -3    9.20   24.40
  -2 -12   3    0.60   27.10
  -2  12  -3  -24.40   23.80
   2  12   3   23.10   27.90
   0   0  -4 1872.11   65.89
   0   0  -4 1857.31   61.09
   0   0   4 1879.01   61.19
   0   0  -4 1889.91   65.59
   0   0   4 1871.51   65.39
   0   0   4 1857.01   65.69
  -1   0   4  331.27   15.00
   1   0   4  335.37   14.80
  -1   0  -4  331.47   14.70
   1   0  -4  316.47   16.10
   1   0   4  334.67   15.70
   1   0  -4  332.77   17.70
  -1   0   4  317.77   15.80
  -1   0   4  319.17   14.60
  -1   0  -4  344.47   18.40
  -1   0  -4  346.57   16.20
  -2   0  -4 1288.57   46.70
  -2   0  -4 1407.86   55.89
   2   0   4 1373.86   50.09
   2   0   4 1328.57   49.99
   2   0  -4 1373.06   50.79
  -2   0   4 1309.37   48.20
  -2   0   4 1274.47   49.99
   2   0  -4 1352.76   48.50
   3   0   4   12.60    3.10
  -3   0   4   14.30    5.10
   3   0   4   17.00    8.60
   3   0  -4    9.20    6.50
   3   0  -4   18.80    6.70
  -3   0  -4    5.70    8.60
  -3   0  -4   15.50    3.40
  -3   0   4   16.80    8.00
  -4   0   4  660.73   28.90
  -4   0   4  610.14   35.30
  -4   0  -4  629.54   35.00
   4   0   4  593.54   35.10
   4   0  -4  639.14   30.40
  -5   0   4   62.49   16.70
   5   0  -4   61.19   10.40
  -5   0  -4   75.99   17.40
  -5   0  -4   42.00   16.60
  -6   0   4  269.47   35.20
  -6   0  -4  290.27   36.30
  -6   0  -4  278.67   29.90
  -7   0   4   20.50   25.40
  -7   0  -4   30.60   22.20
  -7   0  -4    7.10   19.50
   0  -1  -4 3497.85  115.09
   0   1  -4 3575.74  115.49
   0  -1  -4 3403.06  115.99
   0   1   4 3305.37  114.79
   0   1   4 3470.85  117.29
   0   1  -4 3400.26  113.09
   0  -1   4 3405.86  115.09
   0   1  -4 3371.56  114.69
   0  -1   4 3511.45  113.59
   0  -1   4 3346.67  114.29
   1   1  -4   22.40    6.40
   1  -1   4   23.60    5.50
  -1  -1  -4   28.20    4.70
  -1   1   4   18.70    6.00
  -1  -1  -4   17.90    5.40
   1  -1   4   24.30    5.70
  -1   1   4   24.30    4.40
  -1  -1  -4   26.00    6.90
   1   1  -4   29.60    5.70
  -1  -1  -4   24.90    4.30
   1   1  -4   18.10    4.80
   1   1   4   47.80    6.50
  -1  -1   4   44.20    6.10
  -1  -1   4   46.00    7.00
   1  -1  -4   50.79    8.50
  -1   1  -4   61.69    9.90
   1  -1  -4   39.60    7.40
  -1   1  -4   50.99    7.40
  -2  -1  -4 2107.39   70.59
  -2  -1  -4 2136.09   73.79
   2  -1   4 2102.89   71.69
  -2  -1  -4 2068.39   76.29
   2   1  -4 2164.88   74.89
   2   1  -4 2130.39   69.99
  -2   1   4 2140.79   74.19
   2  -1   4 2112.59   75.09
  -2   1  -4 2094.99   71.99
   2  -1  -4 2119.59   75.39
   2   1   4 2089.99   71.09
   2  -1  -4 2048.20   74.49
  -2   1  -4 2060.59   76.99
  -2  -1   4 2025.80   69.89
   2  -1  -4 1999.80   73.89
  -2  -1   4 2018.70   75.39
  -3   1   4  220.78   17.70
   3  -1   4  209.88   13.70
  -3  -1  -4  226.38   17.10
   3  -1   4  231.78   18.90
   3   1  -4  216.18   15.40
  -3  -1  -4  225.08   18.50
  -3   1  -4  243.78   12.60
   3   1   4  240.38    9.60
  -3   1  -4  250.47   19.60
  -3  -1   4  242.18   11.70
   3  -1  -4  222.48   16.40
   3  -1  -4  239.08   16.70
  -3  -1   4  236.58   18.70
  -3  -1   4  249.88   11.70
  -4  -1  -4  967.80   46.40
  -4   1   4 1005.50   41.90
  -4   1   4 1036.70   47.70
   4  -1   4  998.00   47.60
  -4  -1  -4  975.10   45.30
  -4   1  -4  921.81   31.70
  -4  -1   4  965.20   35.00
  -4   1  -4 1016.10   47.40
  -4  -1   4  899.91   38.00
   4  -1  -4 1004.50   41.70
  -4  -1   4  947.81   47.40
  -5   1   4   96.89   13.40
   5  -1   4  124.69   24.20
  -5   1   4   82.99   15.00
  -5  -1  -4  120.49   20.10
  -5   1   4   67.99   18.70
  -5  -1  -4   68.89   18.10
  -5  -1   4   82.99   20.30
  -5   1  -4   97.59   19.10
  -5  -1   4   98.59    8.70
  -6  -1  -4  456.65   38.80
  -6   1   4  555.04   32.50
  -6   1   4  550.94   43.70
  -6  -1   4  458.75   40.50
  -6   1  -4  415.96   35.50
  -6   1  -4  352.76   36.10
  -7  -1  -4    8.80   20.30
  -7   1   4   49.30   25.30
  -7  -1  -4   -6.40   16.30
  -7   1  -4   27.90   21.60
  -7  -1   4   69.09   26.90
  -7   1  -4   33.70   23.80
   0   2  -4  165.18   12.80
   0   2   4  171.28    8.30
   0   2  -4  180.08   12.30
   0  -2   4  164.28   11.30
   0   2  -4  162.18   11.80
   0  -2  -4  176.28    8.30
   0  -2   4  164.48   13.00
   0  -2  -4  169.88   13.40
   0  -2  -4  172.38   12.30
   1   2  -4  155.28    9.70
  -1  -2  -4  138.09   10.20
   1  -2   4  128.89   11.60
  -1  -2  -4  148.09    9.20
   1   2  -4  148.69   12.20
  -1  -2  -4  148.99   12.70
   1  -2  -4  116.99   12.20
  -1   2  -4  122.79   12.90
  -1  -2   4  134.39   12.10
   1  -2  -4  132.99    9.10
   1   2   4  128.39    8.40
  -1   2  -4  138.69   11.80
  -1  -2   4  136.39    9.00
   1   2   4  131.59   10.00
   1  -2  -4  135.89   11.90
  -2  -2  -4   27.00    9.00
   2   2  -4   24.10    4.10
  -2  -2  -4   41.10    8.20
  -2  -2  -4   30.00    6.20
   2   2  -4   44.70    9.00
   2  -2   4   20.20    7.70
  -2   2  -4   39.80   10.70
   2  -2  -4   34.10    8.80
  -2  -2   4   36.10    9.40
  -2   2  -4   37.90    8.00
   2  -2  -4   24.10    7.00
   2   2   4   33.90    5.90
  -2  -2   4   26.70    3.30
  -3  -2  -4  522.65   28.60
  -3  -2  -4  555.34   28.70
   3  -2   4  513.85   30.60
  -3   2  -4  557.24   24.60
   3  -2  -4  547.05   29.20
   3   2   4  566.94   20.90
   3   2   4  531.55   20.80
   3  -2  -4  554.04   29.40
  -3  -2   4  576.34   31.50
   3  -2  -4  543.55   28.30
  -3   2  -4  554.54   31.30
   4  -2   4   58.99   15.30
  -4   2  -4  156.18   22.20
  -4   2  -4  100.79    9.10
   4  -2  -4  120.29   18.80
   4  -2  -4  113.59   15.20
  -4   2  -4  107.79   10.30
  -4  -2   4  105.69   18.70
  -5   2   4  108.09   15.90
  -5  -2  -4  112.49   22.60
  -5   2   4  116.29   22.50
   5  -2   4   98.49   22.40
  -5  -2  -4   93.09   17.90
  -5   2   4  129.79   19.20
  -5  -2   4   83.79   20.00
  -5   2  -4  128.29   22.30
  -6  -2  -4    0.60   13.00
   6  -2   4   13.10   20.50
  -6  -2  -4   13.70   17.90
  -6   2   4   55.69   19.70
  -6   2   4   26.30   10.00
  -6   2   4   16.40   21.00
  -6   2  -4   32.10   19.90
  -6  -2   4   47.10   21.60
  -7   2   4  104.29   29.70
  -7  -2  -4   65.59   25.40
  -7  -2   4   67.89   28.00
  -7   2  -4  120.79   30.40
  -7   2  -4   65.49   30.40
   0  -3  -4 2797.92   98.39
   0   3  -4 2925.81  109.29
   0   3  -4 2703.03   94.59
   0  -3   4 2659.83   97.39
   0  -3  -4 2696.63   91.69
  -1  -3  -4  912.41   36.20
   1   3  -4  914.91   35.00
  -1   3   4  870.01   35.90
  -1  -3  -4  918.41   37.80
   1   3  -4  913.11   39.40
  -1   3  -4  992.10   41.00
   1  -3  -4  976.50   40.20
   1  -3  -4  948.91   36.10
   1  -3  -4  959.10   41.20
   1   3   4  952.50   35.70
  -1  -3   4 1002.60   44.30
  -1  -3   4  909.31   34.40
   2   3  -4 1410.76   53.79
   2  -3   4 1296.57   55.19
  -2  -3  -4 1371.16   52.39
  -2  -3  -4 1362.36   54.29
   2  -3  -4 1337.77   54.39
  -2   3  -4 1321.97   55.99
   2   3   4 1356.06   49.99
  -2  -3   4 1294.77   55.69
   2  -3  -4 1394.66   56.29
  -2   3  -4 1350.86   56.09
   2  -3  -4 1381.46   55.99
  -3  -3  -4  507.95   29.10
  -3  -3  -4  568.84   30.80
   3   3  -4  517.45   28.20
   3  -3   4  548.75   33.10
   3  -3  -4  600.94   31.50
  -3   3  -4  621.24   28.50
  -3   3  -4  653.33   35.60
  -3  -3   4  568.34   33.40
   3   3   4  580.04   24.00
   3  -3  -4  602.34   30.80
   3  -3  -4  601.84   32.90
   3   3   4  583.44   23.80
   4   3  -4  738.83   35.10
  -4   3   4  733.23   39.30
  -4  -3  -4  782.62   41.00
  -4   3   4  739.23   36.90
   4  -3   4  723.93   42.40
  -4  -3  -4  723.03   37.20
  -4   3  -4  846.02   43.90
  -4  -3   4  804.52   44.30
   4  -3  -4  769.02   41.30
  -5  -3  -4  291.77   27.80
   5  -3   4  234.38   30.10
   5   3  -4  271.77   19.00
  -5  -3  -4  269.87   22.40
  -5   3   4  241.68   21.30
  -5   3   4  283.27   26.30
  -5   3  -4  315.27   31.20
   5  -3  -4  275.97   28.40
  -5  -3   4  345.77   32.50
  -5   3  -4  273.97   16.90
  -6   3   4  465.95   42.70
  -6  -3  -4  447.16   40.00
  -6  -3  -4  450.55   29.80
   6  -3   4  433.86   41.70
  -6   3   4  435.16   27.60
  -6   3   4  439.26   35.80
  -6   3  -4  494.95   41.70
  -6  -3   4  473.55   44.90
  -7   3   4   88.19   27.40
  -7  -3  -4   63.39   26.40
  -7   3   4   69.69   27.70
  -7  -3   4   65.19   29.10
  -7   3  -4  123.59   31.50
  -7   3  -4  140.89   30.30
   0   4   4   18.00    7.80
   0  -4  -4   20.10    8.50
   0   4  -4   20.30    8.70
   0  -4  -4   33.50    7.80
   0   4  -4   19.70    7.30
   0  -4   4   25.80    9.30
   1   4  -4  659.93   27.60
  -1  -4  -4  652.83   30.00
  -1   4   4  629.14   31.70
   1  -4   4  670.93   34.50
   1   4  -4  606.04   27.00
  -1  -4  -4  663.23   32.40
   1   4  -4  624.04   31.60
   1  -4  -4  649.24   29.00
  -1  -4   4  650.53   34.40
  -1   4  -4  631.24   31.40
   1  -4  -4  685.93   34.30
  -1   4  -4  686.93   32.90
   1  -4  -4  634.64   32.20
   1   4   4  657.33   30.50
   2  -4   4   11.50    9.50
  -2  -4  -4   30.20    9.60
   2   4  -4   29.70    9.70
  -2  -4  -4   28.30    9.60
   2   4  -4   35.00    4.50
  -2   4   4   21.90    9.00
   2   4  -4   23.70    4.00
  -2   4  -4    6.30   10.10
  -2   4  -4   15.00    8.60
  -2  -4   4    4.20    9.50
   2  -4  -4   15.70    7.80
   2  -4  -4    9.60    9.10
  -3  -4  -4  191.58   19.00
   3   4  -4  179.78   17.50
  -3  -4  -4  215.28   17.60
  -3   4   4  203.28   18.10
   3  -4   4  194.28   22.00
   3   4   4  216.58   13.90
  -3   4  -4  209.38   22.10
  -3  -4   4  214.78   22.20
   3  -4  -4  222.68   20.30
  -3   4  -4  235.18   17.80
   3  -4  -4  193.98   20.20
  -4  -4  -4   21.70   13.20
  -4   4   4    4.00    9.40
  -4  -4  -4   17.50   10.00
   4  -4   4   11.40   13.90
  -4   4   4   30.40   15.10
   4   4  -4   21.20   10.50
  -4  -4   4    0.10   12.30
   4   4   4    5.80    8.00
  -4   4  -4   17.30    9.30
  -4   4  -4   38.20   17.30
   4  -4  -4   21.50   13.40
   4   4   4    7.80    4.70
  -5   4   4  135.79   20.10
   5  -4   4  150.98   28.90
   5   4  -4  143.19   16.60
  -5  -4  -4  127.69   17.70
  -5   4   4  125.59   22.50
  -5  -4  -4  140.19   23.70
  -5   4  -4  177.48   17.00
   5  -4  -4  195.38   27.50
  -5   4  -4  147.59   26.90
  -5  -4   4  128.59   26.60
  -6   4   4   18.50   13.30
   6  -4   4   16.30   32.20
  -6   4   4    2.20   20.10
  -6  -4  -4   -0.50   10.70
  -6  -4  -4   44.70   21.80
  -6   4   4   14.00   20.50
  -6   4  -4   16.20   20.90
  -6  -4   4   -0.40   20.60
   6  -4  -4   -6.10   16.40
  -7   4   4  106.39   31.60
  -7  -4  -4   27.70   23.50
   7  -4   4   50.29   28.30
  -7  -4   4   79.19   29.30
  -7   4  -4   37.00   27.50
   0  -5   4  765.92   40.80
   0  -5  -4  847.12   40.30
   0   5  -4  767.42   36.10
   0   5  -4  782.22   38.50
   0   5   4  771.92   37.70
  -1  -5  -4  558.54   29.80
  -1   5   4  648.04   32.50
  -1  -5  -4  513.55   30.60
   1   5  -4  551.04   31.30
   1   5  -4  575.24   27.20
   1  -5   4  540.55   34.00
  -1   5  -4  600.64   32.30
  -1   5  -4  620.04   32.70
   1  -5  -4  625.64   34.30
  -1  -5   4  525.85   33.10
   1  -5  -4  586.04   29.30
   1   5   4  556.14   29.50
  -2  -5  -4  175.68   17.20
  -2  -5  -4  175.08   18.00
   2  -5   4  190.78   25.00
  -2   5   4  166.48   17.70
   2   5  -4  176.38   11.20
   2   5  -4  167.58   17.90
   2  -5  -4  198.48   21.00
   2  -5  -4  198.48   17.40
  -2  -5   4  205.08   20.90
  -2   5  -4  204.28   18.90
   2   5   4  217.98   16.90
  -2   5  -4  211.68   24.90
  -3  -5  -4  518.75   29.20
  -3   5   4  501.15   30.90
   3   5  -4  510.65   30.10
   3  -5   4  493.75   34.50
  -3  -5  -4  544.25   32.10
   3   5   4  478.35   25.20
  -3  -5   4  455.15   33.90
   3  -5  -4  508.25   35.30
  -3   5  -4  460.15   29.00
  -3   5  -4  451.65   35.10
   3  -5  -4  478.05   30.30
   4   5  -4   68.89   15.30
  -4  -5  -4  102.69   17.00
  -4   5   4  101.29   16.00
   4  -5   4   70.99   20.30
  -4   5   4   60.49   20.00
  -4  -5  -4   95.39   26.50
   4  -5  -4   63.49   17.30
   4   5   4   76.59   10.30
  -4  -5   4  118.09   24.90
  -4   5  -4  115.99   25.00
  -4   5  -4   89.49   16.20
  -5   5   4  187.28   27.00
  -5   5   4  248.08   25.00
   5  -5   4  206.38   31.30
   5   5  -4  244.88   20.60
  -5  -5  -4  224.18   20.10
  -5  -5  -4  273.37   34.10
  -5   5  -4  174.98   21.20
   5  -5  -4  215.68   31.60
  -5  -5   4  136.49   27.20
  -5   5  -4  199.98   34.30
   6  -5   4  103.49   31.10
  -6   5   4   95.39   27.40
  -6   5   4   80.69   18.40
  -6  -5  -4  115.99   43.90
   6  -5  -4   97.99   26.60
  -6  -5   4   44.80   25.00
  -6   5  -4   72.49   27.60
  -7   5   4   49.10   28.60
   7  -5   4   77.89   34.40
  -7   5   4   93.39   31.60
  -7  -5  -4  127.79   29.30
  -7   5  -4   96.69   32.50
  -7  -5   4  103.19   40.60
   0  -6   4   73.99   18.80
   0   6   4   54.09   13.10
   0  -6  -4   59.09   13.40
   0   6  -4   65.79   13.00
   0  -6  -4   24.50   11.70
   0   6  -4   65.29   14.30
   1  -6   4  305.87   26.70
   1   6  -4  335.37   25.70
  -1   6   4  321.27   24.30
  -1  -6  -4  342.67   24.90
  -1  -6  -4  286.67   22.80
   1   6  -4  318.47   20.70
   1   6   4  327.47   23.20
  -1   6  -4  293.47   23.80
  -1   6  -4  290.37   23.90
   1  -6  -4  299.17   22.60
  -1  -6   4  296.67   27.50
   1  -6  -4  300.77   26.10
  -2  -6  -4  203.68   21.20
   2  -6   4  170.18   26.10
   2   6  -4  203.48   20.70
   2   6  -4  182.08   16.00
  -2   6   4  192.48   20.40
   2   6  -4  202.18   13.80
  -2  -6  -4  211.18   19.20
  -2   6  -4  184.08   24.70
   2  -6  -4  178.68   24.60
   2  -6  -4  165.18   19.30
  -2  -6   4  184.48   26.80
  -2   6  -4  182.68   21.00
   2   6   4  185.48   17.90
   3   6  -4  180.68   20.70
  -3  -6  -4  188.18   19.70
   3  -6   4  214.68   29.40
  -3   6   4  161.58   28.50
  -3  -6  -4  183.98   24.20
   3   6   4  177.18   17.20
   3  -6  -4  183.48   27.60
  -3   6  -4  197.18   27.50
   3  -6  -4  199.98   24.90
  -3  -6   4  142.09   25.30
  -3   6  -4  175.68   21.10
  -4   6   4  135.59   21.20
   4   6  -4  102.89   18.80
  -4  -6  -4  134.79   21.50
  -4   6   4  124.79   25.50
  -4  -6  -4  141.29   18.60
   4  -6   4  126.49   26.40
   4   6   4  102.89   14.30
  -4  -6   4   77.89   23.00
  -4   6  -4  144.49   28.10
  -4   6  -4  111.29   19.10
   4  -6  -4  149.99   25.70
  -5  -6  -4  144.69   17.20
   5  -6   4  142.29   30.30
  -5   6   4  139.69   28.80
   5   6  -4  144.79   20.90
  -5  -6  -4  150.48   27.90
  -5   6   4  159.28   23.10
  -5   6  -4  155.68   27.80
   5  -6  -4  163.78   29.00
  -5  -6   4   93.99   27.30
  -5   6  -4  109.59   30.20
   6  -6   4   17.90   24.00
  -6   6   4   44.10   25.00
  -6  -6  -4   78.49   25.20
  -6   6   4   70.89   20.90
  -6   6  -4   22.50   26.00
  -6  -6   4   49.90   28.60
   6  -6  -4   44.30   23.20
   0  -7   4  574.34   43.90
   0   7  -4  560.64   38.00
   0  -7  -4  551.94   36.10
   0  -7  -4  610.34   35.00
   0   7  -4  576.54   33.90
   0   7   4  588.24   35.30
   1   7  -4   16.60   13.60
   1  -7   4   27.10   20.00
  -1   7   4   16.00   13.30
  -1  -7  -4   16.70   12.10
  -1  -7  -4   19.10   11.60
   1   7  -4    9.50    9.30
  -1   7  -4   87.99   18.80
  -1  -7   4  107.49   27.80
   1   7   4   75.29   15.90
   2   7  -4  457.75   24.50
   2  -7   4  494.55   39.50
  -2  -7  -4  440.06   30.50
  -2  -7  -4  471.85   33.30
  -2   7   4  500.85   34.20
   2  -7  -4  490.15   32.80
  -2  -7   4  473.05   37.10
   2  -7  -4  477.15   37.50
  -2   7  -4  418.16   34.00
   2   7   4  465.75   30.40
  -2   7  -4  479.25   34.00
   3   7  -4   44.30   18.40
  -3  -7  -4   47.60   13.60
  -3   7   4   23.30   15.40
  -3  -7  -4   20.20   13.70
   3  -7   4    9.40   17.00
  -3   7   4   39.30   18.80
  -3   7  -4   38.40   19.90
  -3  -7   4   19.80   20.10
   3  -7  -4   50.89   17.90
  -3   7  -4   27.20   15.70
   3   7   4   37.00   12.40
   3  -7  -4   24.70   18.50
  -4  -7  -4  168.38   19.60
  -4   7   4  308.47   39.60
  -4   7   4  203.58   23.70
  -4  -7  -4  250.07   31.70
   4  -7   4  214.28   35.20
   4   7  -4  160.58   23.30
  -4   7  -4  167.08   29.80
  -4  -7   4  144.99   30.70
   4  -7  -4  217.08   30.70
  -4   7  -4  211.68   25.90
   4   7   4  183.98   19.40
   5  -7   4   18.40   23.70
  -5   7   4   17.60   17.30
   5   7  -4   63.09   19.80
  -5  -7  -4  -17.10   17.80
  -5  -7   4   -2.70   19.40
  -5   7  -4    8.50   28.00
  -5   7  -4   -8.20   16.70
   5  -7  -4  -29.10   17.90
  -6   7   4   82.49   29.90
  -6  -7  -4   89.19   26.70
   6  -7   4   75.89   25.80
  -6  -7   4   81.09   29.50
  -6   7  -4   67.49   31.90
   6  -7  -4   51.99   23.80
   0  -8  -4  105.69   20.00
   0  -8   4  113.39   25.00
   0   8  -4  111.79   19.00
   0  -8  -4  137.69   22.20
   0   8   4  120.89   21.30
   0   8  -4  112.19   22.70
  -1  -8  -4  572.64   36.70
   1   8  -4  543.25   32.40
   1  -8   4  593.54   43.20
  -1   8   4  608.34   39.10
  -1  -8  -4  532.45   47.10
   1   8  -4  527.85   38.30
  -1   8  -4  515.05   37.10
   1   8   4  542.85   36.20
  -1  -8   4  460.05   39.30
  -1   8  -4  516.05   38.00
   1  -8  -4  530.95   35.50
   1  -8  -4  571.04   39.50
   2  -8   4  213.48   33.80
   2   8  -4  210.78   18.80
  -2  -8  -4  253.77   27.20
  -2   8   4  209.78   26.00
   2   8  -4  275.07   27.90
  -2  -8  -4  216.18   24.10
  -2  -8   4  164.98   28.80
   2  -8  -4  244.78   25.80
  -2   8  -4  250.97   29.40
   2   8   4  235.38   24.40
  -2   8  -4  247.98   33.30
   2  -8  -4  238.38   28.80
  -3  -8  -4  486.45   37.70
   3  -8   4  441.26   43.30
   3   8  -4  477.65   36.30
  -3   8   4  492.65   38.00
  -3  -8  -4  547.65   34.70
  -3   8   4  499.35   44.50
  -3   8  -4  437.96   40.80
  -3   8  -4  445.46   36.80
   3   8   4  531.45   34.00
   3  -8  -4  475.75   36.40
   4   8  -4  137.69   23.50
  -4  -8  -4  114.39   19.40
  -4  -8  -4  161.88   29.40
  -4   8   4  148.29   39.70
  -4   8   4  160.18   26.10
   4  -8  -4  181.78   29.90
   4   8   4  165.08   22.00
  -4   8  -4  174.48   29.50
  -5  -8  -4  133.39   29.40
   5   8  -4  112.89   24.20
  -5   8   4  145.79   29.10
   5  -8   4  108.99   33.40
  -5   8   4  130.99   34.70
   5  -8  -4   85.29   24.30
  -5  -8   4  119.09   33.40
  -5   8  -4  108.29   34.60
  -5   8  -4  205.88   32.10
  -6   8   4   72.89   35.40
  -6  -8  -4   -2.00   25.10
   6  -8   4    7.70   39.60
  -6   8   4   32.30   21.90
  -6  -8   4   29.10   43.90
   6  -8  -4  -10.60   25.20
   0  -9   4   42.70   22.00
   0  -9  -4   45.10   16.70
   0   9  -4   49.10   21.50
   0  -9  -4   24.20   15.60
   0   9   4    9.30   14.60
   0   9  -4   55.59   18.00
  -1   9   4  150.08   26.40
  -1  -9  -4  161.18   25.40
   1  -9   4  157.08   34.30
   1   9  -4  183.88   22.90
  -1  -9  -4  220.28   28.10
   1   9  -4  147.49   26.20
   1  -9  -4  206.98   29.20
  -1   9  -4  201.38   31.70
   1   9   4  177.98   27.60
  -1   9  -4  157.98   27.60
  -1  -9   4  193.78   35.30
   1  -9  -4  154.68   28.00
  -2   9   4   41.30   25.40
   2  -9   4   26.50   23.60
   2   9  -4   35.90   14.00
  -2  -9  -4   46.30   19.30
   2   9  -4   56.49   19.70
  -2  -9  -4   79.89   19.30
  -2   9   4   32.80   16.60
   2   9   4   48.30   16.40
  -2  -9   4   67.09   25.70
  -2   9  -4   59.29   22.10
   2  -9  -4   58.69   19.60
   2  -9  -4   62.39   22.60
  -2   9  -4   48.40   21.50
   3   9  -4   93.99   22.20
  -3   9   4  117.09   25.20
  -3  -9  -4  120.39   26.60
  -3  -9  -4  190.48   23.80
   3  -9  -4  169.48   28.00
  -3   9  -4  101.59   25.40
   3   9   4  112.59   21.90
  -3   9  -4  139.49   35.90
  -4   9   4   55.49   31.30
   4  -9   4   36.50   29.60
  -4  -9  -4   65.99   24.00
  -4   9   4   99.89   23.70
   4   9  -4   51.89   23.30
  -4   9  -4   24.50   25.90
   4   9   4   49.50   19.20
  -4  -9   4   30.00   25.10
   4  -9  -4   43.20   32.10
  -5  -9  -4   19.90   25.40
  -5   9   4   42.90   23.30
   5  -9   4   -9.30   28.10
  -5   9   4   -8.80   26.60
   5  -9  -4   75.89   26.80
  -5   9  -4   82.49   32.50
  -5   9  -4   52.59   25.50
  -5  -9   4   14.80   26.60
   0  10  -4   13.80   20.60
   0 -10  -4   14.00   17.30
   0 -10  -4    6.10   18.50
   0  10   4   27.10   19.80
   0 -10   4   33.90   24.30
   0  10  -4   20.90   18.40
  -1  10   4    7.80   23.10
   1  10  -4   15.20   20.90
  -1 -10  -4    4.30   16.50
   1 -10   4  -14.80   25.60
  -1  10   4    9.40   19.40
   1  10  -4   28.60   16.00
  -1 -10  -4    5.30   17.40
   1  10   4   -6.80   14.20
  -1 -10   4    1.30   26.20
  -1  10  -4    6.30   24.20
   1 -10  -4   28.30   22.50
  -1  10  -4   10.20   19.10
   1 -10  -4   14.20   17.90
  -2  10   4   99.79   25.40
   2 -10   4   94.09   28.70
   2  10  -4   59.89   25.20
   2  10  -4   21.20   17.70
  -2  10   4   80.49   29.20
  -2 -10  -4   98.09   25.50
  -2 -10  -4   44.60   20.40
  -2  10  -4   65.89   26.50
   2 -10  -4   93.09   24.00
  -2 -10   4   93.29   28.20
   2  10   4   44.40   20.50
   3  10  -4   -3.00   29.30
  -3  10   4   19.70   20.90
  -3 -10  -4    5.90   16.80
  -3  10   4   52.69   27.50
   3 -10   4   -8.50   25.00
  -3  10  -4   63.99   30.60
  -3 -10   4    0.80   28.10
   3  10   4    9.40   17.30
  -3  10  -4   38.90   25.90
   4  10  -4   37.90   23.00
  -4  10   4   51.49   31.80
  -4 -10  -4   68.89   27.60
  -4  10   4   45.80   24.20
   4 -10   4   55.59   30.30
   4 -10  -4   27.30   25.40
  -4 -10   4   17.20   32.10
  -4  10  -4   -2.40   29.20
   4  10   4   -2.70   23.50
  -4  10  -4   18.40   23.90
   0  11   4  422.36   40.80
   0 -11   4  373.16   50.79
   0 -11  -4  348.47   38.70
   0  11  -4  426.96   40.30
   0  11   4  317.87   38.40
   0 -11  -4  300.37   38.50
   0  11  -4  344.77   41.50
   1  11  -4   46.90   24.50
   1 -11   4   35.70   30.00
  -1  11   4   38.30   26.60
  -1  11   4   32.20   24.00
   1  11  -4   42.70   22.60
  -1 -11  -4   64.39   30.00
   1  11   4   50.79   22.90
  -1  11  -4   29.80   25.70
  -1 -11   4   36.70   30.20
  -1  11  -4   31.20   26.40
   1 -11  -4   74.89   32.90
  -2 -11  -4  408.66   38.60
  -2 -11  -4  406.16   42.80
  -2  11   4  436.76   42.90
  -2  11   4  423.66   48.20
   2 -11   4  422.56   49.30
   2  11  -4  391.86   41.90
   2  11   4  398.16   39.40
  -2 -11   4  334.37   46.30
  -2  11  -4  371.56   42.70
  -2  11  -4  380.36   44.20
   2 -11  -4  397.26   41.90
  -3 -11  -4   48.10   26.10
  -3  11   4   36.60   29.20
   3 -11   4   77.19   33.40
  -3  11   4   29.40   26.00
   3  11  -4   40.30   25.80
  -3  11  -4   43.80   26.00
   3  11   4   43.10   23.70
  -3  11  -4   80.29   30.80
  -3 -11   4   53.29   29.70
   3 -11  -4   44.10   25.20
   0  12   4   11.00   23.80
   0  12   4   36.70   24.20
   0  12  -4   37.80   26.90
   0 -12  -4   41.20   25.70
   0 -12   4  -23.30   25.20
   0  12  -4   40.20   27.30
  -1 -12  -4   20.40   24.80
  -1  12   4  -24.60   25.00
   1  12  -4   16.60   25.60
  -1  12   4    7.30   23.90
   1 -12   4   24.90   25.50
  -1  12  -4   -2.10   26.30
   1  12   4   -1.40   25.30
  -1 -12   4   23.90   26.70
   1  12   4    4.50   21.80
  -1  12  -4    0.70   26.30
   1 -12  -4   18.00   24.90
  -2  12   4   14.80   45.60
  -2 -12  -4   23.40   25.60
   2  12  -4  -21.80   24.20
   2  12   4    6.10   24.60
   2 -12  -4   26.10   26.40
  -2  12  -4   -9.00   27.40
   2  12   4  -49.20   25.60
   0   0  -5   -4.50    4.40
   0   0  -5   -2.60    5.10
   0   0  -5    1.10    2.20
   0   0   5    3.30    2.70
  -1   0  -5  903.91   33.20
  -1   0  -5  891.41   38.30
   1   0   5  894.11   32.90
  -1   0   5  935.91   37.60
  -1   0  -5  905.61   35.70
  -1   0   5  898.21   33.50
   1   0  -5  903.51   36.20
   1   0  -5  881.31   37.50
  -1   0   5  903.61   36.40
  -2   0   5    0.20    4.40
   2   0  -5    3.70    6.90
   2   0   5   -4.30    4.40
   2   0  -5   -7.40    4.70
   2   0   5    5.70    3.60
  -2   0  -5   -3.60    6.90
  -2   0   5    4.10    4.10
  -2   0  -5    2.40    4.90
   3   0   5   96.89   14.10
  -3   0   5   70.29   12.10
  -3   0  -5   88.09   15.80
   3   0  -5   71.89   12.10
   3   0  -5   74.19   10.00
  -3   0  -5   57.79    7.20
  -4   0   5   15.90    6.80
   4   0   5   23.50   12.30
   4   0  -5   27.90   10.00
  -4   0   5   33.70   12.70
  -4   0  -5   25.80   13.60
  -5   0  -5   44.40   15.60
  -5   0   5   71.29   19.20
   5   0  -5   57.69   12.40
  -5   0   5   68.39   18.60
  -5   0  -5   67.19   17.90
  -6   0  -5   74.79   21.80
  -6   0  -5   99.19   23.60
  -6   0   5   78.79   12.70
  -6   0   5   66.69   24.60
  -7   0  -5    3.30   20.30
  -7   0   5   24.70   24.10
  -7   0  -5   59.89   24.60
   0  -1  -5   71.89   10.60
   0  -1  -5   72.69   10.20
   0  -1   5   75.29    8.80
   0   1  -5   67.79   10.20
   0   1  -5   75.69   10.70
   1  -1   5  274.47   14.70
  -1  -1  -5  281.87   12.20
  -1  -1  -5  278.67   12.00
   1   1  -5  284.17   17.20
  -1   1   5  272.37   12.20
  -1  -1  -5  276.67   15.30
   1   1  -5  281.37   15.00
   1   1  -5  260.07   14.30
  -1  -1  -5  309.07   18.70
  -1   1   5  279.07   12.50
  -1   1  -5  218.48   16.90
   1  -1  -5  210.78   15.90
  -1  -1   5  212.68   13.60
  -1  -1   5  221.98   14.40
  -2   1   5  422.56   21.10
   2  -1   5  432.36   22.00
  -2  -1  -5  400.96   18.90
   2   1  -5  417.26   22.70
   2   1  -5  430.36   19.00
  -2  -1  -5  409.46   20.20
  -2  -1  -5  420.16   24.60
  -2  -1   5  384.96   21.70
   2  -1  -5  411.96   21.70
   2   1   5  379.96   18.50
  -2  -1   5  394.06   18.60
  -2   1  -5  436.86   20.30
   2  -1  -5  385.76   22.20
  -2   1  -5  389.96   23.90
  -3  -1  -5  529.15   27.80
  -3  -1  -5  561.94   21.10
   3  -1   5  496.35   22.10
   3   1  -5  531.25   21.80
  -3   1   5  552.04   28.80
  -3  -1  -5  538.65   29.80
   3   1  -5  534.55   27.20
   3  -1   5  547.95   28.80
  -3   1  -5  516.45   30.90
  -3   1  -5  499.05   22.70
   3   1   5  476.35   20.40
  -3  -1   5  443.86   27.80
   3  -1  -5  497.85   27.20
  -4  -1  -5  335.67   24.80
   4   1  -5  326.07   21.50
  -4   1   5  322.77   21.90
  -4   1   5  356.86   26.00
   4  -1   5  328.77   25.90
  -4  -1  -5  341.87   25.70
  -4   1  -5  315.67   14.50
  -4  -1   5  325.97   26.50
  -4   1  -5  356.56   27.80
  -4  -1   5  321.57   15.40
   4  -1  -5  325.77   21.50
  -5  -1  -5   55.59   16.10
  -5   1   5   80.39   14.60
  -5   1   5   52.99   18.00
  -5  -1  -5  106.09   19.00
   5   1  -5   63.99   12.40
   5  -1   5  127.89   23.60
  -5  -1   5   64.39   18.80
  -5   1  -5   45.30   19.00
   5  -1  -5   63.99   13.40
  -5  -1   5   48.00    5.70
  -6   1   5   67.99   12.80
  -6   1   5   95.89   18.00
  -6  -1  -5   98.69   21.60
  -6  -1  -5   77.09   22.10
  -6   1   5   56.09   22.90
  -6   1  -5   79.89   23.30
  -6   1  -5   94.29   22.80
  -6  -1   5   77.99   24.00
  -7  -1  -5   72.29   26.30
  -7  -1  -5   21.30   21.00
  -7   1   5   83.49   28.40
  -7   1  -5   49.30   24.50
  -7  -1   5   78.19   29.10
  -7   1  -5    9.00   23.60
   0  -2  -5   10.00    7.90
   0   2   5   20.70    2.50
   0  -2   5   19.40    7.00
   0   2  -5   22.20    7.00
   0   2  -5   21.20    7.60
   0  -2  -5   11.80    6.40
   1   2  -5  409.76   20.00
  -1  -2  -5  415.16   23.60
  -1  -2  -5  410.56   17.10
   1   2  -5  415.76   23.10
   1  -2   5  435.26   21.80
  -1  -2  -5  405.06   20.90
  -1   2   5  415.56   17.90
  -1  -2  -5  403.16   17.50
  -1   2  -5  482.95   24.60
   1  -2  -5  423.16   23.00
  -1  -2   5  404.76   19.10
  -1   2  -5  444.36   22.30
  -1  -2   5  465.25   22.90
   1  -2  -5  437.46   18.00
  -2  -2  -5   84.09   10.30
   2   2  -5   60.79    6.70
  -2  -2  -5   68.49    9.70
   2  -2   5   81.09   12.90
   2   2  -5   82.19   12.90
  -2  -2  -5   65.49   12.00
  -2   2  -5   90.69   14.80
  -2  -2   5   84.79    6.80
   2  -2  -5  108.39   14.30
  -2   2  -5   94.69   10.90
  -2  -2   5  100.29   14.20
   2  -2  -5   77.69    9.40
   2  -2  -5  122.49   15.30
  -3  -2  -5  220.68   17.40
   3   2  -5  253.27   18.20
  -3  -2  -5  222.98   19.30
   3  -2   5  265.17   21.10
   3  -2  -5  200.58   17.40
  -3  -2   5  195.38   18.90
   3  -2  -5  202.98   17.40
   3  -2  -5  199.98   18.80
   3   2   5  210.28   11.60
   3   2   5  208.78   14.00
  -3   2  -5  207.98   14.50
  -3   2  -5  218.98   21.60
  -4  -2  -5   56.19   13.90
   4  -2   5   47.10   16.40
  -4  -2  -5   43.30   13.10
  -4   2   5   59.89   15.00
  -4   2   5   29.90   12.80
   4   2  -5   42.50   11.20
  -4   2  -5   51.39    8.90
   4  -2  -5   54.19   11.90
  -4  -2   5   46.50   14.90
  -4   2  -5   45.90   16.90
   5  -2   5  165.48   26.60
  -5   2   5  178.98   18.70
  -5   2   5  165.08   26.10
   5   2  -5  161.48   17.00
  -5   2   5  158.48   20.40
  -5  -2  -5  214.38   28.00
  -5  -2  -5  195.28   24.20
  -5   2  -5  186.88   28.10
  -5  -2   5  181.28   27.60
  -6   2   5   -8.70   15.70
   6  -2   5  -13.00   18.60
  -6  -2  -5   11.40   17.70
  -6   2   5  -18.80   15.70
  -6  -2  -5   37.20   16.40
  -6   2   5   13.70   11.30
  -6   2  -5   40.90   21.80
  -6  -2   5   41.40   21.50
  -7  -2  -5   43.70   24.00
  -7   2   5   25.50   25.50
  -7   2  -5   85.59   26.30
  -7   2  -5  123.89   31.40
  -7  -2   5   73.69   28.90
   0   3   5  216.18   11.00
   0  -3  -5  211.28   16.00
   0  -3   5  211.48   18.40
   0  -3  -5  210.08   17.10
   0   3  -5  198.18   15.10
   0   3  -5  217.58   16.80
   0  -3  -5  215.88   11.40
  -1  -3  -5  288.47   15.20
  -1  -3  -5  284.67   20.00
   1   3  -5  282.87   19.40
   1  -3   5  275.27   19.50
  -1   3   5  267.07   14.80
   1   3  -5  307.97   16.10
   1  -3  -5  284.07   20.50
  -1  -3   5  267.77   15.30
   1  -3  -5  292.17   19.80
  -1  -3   5  299.67   20.20
   1  -3  -5  299.17   15.10
   1   3   5  312.37   14.60
  -1   3  -5  318.97   19.80
  -1   3  -5  272.87   19.90
  -2  -3  -5   94.39   10.40
   2  -3   5  113.89   16.30
   2   3  -5  114.39   15.50
  -2  -3  -5  115.19   16.00
  -2  -3  -5  105.09   11.30
  -2   3  -5  144.09   16.40
   2  -3  -5  138.99   15.70
   2  -3  -5  136.19   14.80
  -2  -3   5  140.99    7.80
   2  -3  -5  146.39   12.70
  -2  -3   5  147.79   15.50
  -2   3  -5  145.49   14.30
   3   3  -5   93.59   14.70
  -3  -3  -5  102.49   15.20
  -3  -3  -5  124.39   17.80
   3  -3   5   83.49   16.90
  -3   3  -5  107.19   12.50
   3   3   5   81.49    8.50
  -3   3  -5   76.19   17.50
   3  -3  -5  120.79   17.40
  -3  -3   5  110.29   17.60
   3  -3  -5   96.79   16.50
   3  -3  -5   82.49   13.20
  -4  -3  -5   32.10   12.30
  -4   3   5   20.20   13.60
   4  -3   5   35.80   22.80
   4   3  -5   26.70   10.20
  -4  -3  -5   27.00   13.20
  -4   3   5   25.00   10.80
  -4   3  -5   51.19   11.20
   4  -3  -5   65.09   15.20
   4  -3  -5   55.39   14.30
   5  -3   5   36.20   17.40
  -5   3   5   45.70   18.00
  -5  -3  -5   49.10   14.60
   5   3  -5   56.19   12.80
  -5   3   5   39.50   12.70
  -5   3   5   52.99   16.50
  -5  -3  -5   38.70   16.60
  -5   3  -5   91.99   11.20
  -5   3  -5   82.89   23.80
  -5  -3   5   70.79   21.30
  -6   3   5   67.19   23.30
  -6   3   5   52.09   14.50
  -6  -3  -5  100.59   25.40
  -6   3   5   25.10   18.40
   6  -3   5   38.20   24.70
  -6   3  -5   91.29   25.10
  -6  -3   5   81.79   35.90
  -7  -3  -5   14.80   22.40
  -7   3   5   29.80   36.10
  -7   3   5   21.20   24.90
  -7   3  -5   91.99   30.70
  -7   3  -5   24.80   23.60
  -7  -3   5   30.40   25.20
   0  -4  -5 3679.23  131.89
   0  -4  -5 3832.12  126.69
   0   4  -5 3785.92  132.79
   0  -4   5 3803.42  134.39
   0   4   5 3724.03  126.29
   0  -4  -5 3856.11  134.39
   0   4  -5 3760.72  130.29
   1  -4   5  171.38   20.90
   1   4  -5  153.88   16.10
   1   4  -5  147.09   12.40
  -1  -4  -5  139.99   12.80
  -1  -4  -5  147.89   15.70
   1  -4  -5  152.48   12.10
  -1   4  -5  145.89   15.70
   1   4   5  157.18   13.90
   1  -4  -5  155.18   15.80
  -1   4  -5  157.98   17.10
   1  -4  -5  149.09   16.20
  -1  -4   5  173.48   17.80
   2   4  -5 3109.09  104.19
  -2  -4  -5 3227.58  115.19
  -2  -4  -5 3197.08  111.49
   2   4  -5 3069.99  114.19
   2  -4   5 3087.29  116.19
  -2   4  -5 3258.27  113.89
  -2   4  -5 3188.48  117.59
   2  -4  -5 3159.38  115.59
   2   4   5 3232.18  110.79
   2  -4  -5 3162.78  111.09
   2  -4  -5 3226.88  117.79
  -2  -4   5 3179.88  117.19
   3  -4   5  184.78   25.00
  -3  -4  -5  185.28   18.90
   3   4  -5  185.48   18.20
  -3   4   5  166.38   18.60
  -3  -4  -5  176.38   18.40
  -3  -4   5  213.48   22.40
   3   4   5  208.08   14.40
   3  -4  -5  167.68   21.20
   3  -4  -5  221.78   19.40
  -3   4  -5  204.08   24.00
  -3   4  -5  220.78   18.30
  -4   4   5 1847.52   74.99
   4   4  -5 1919.91   74.09
  -4  -4  -5 1877.91   74.59
  -4  -4  -5 1896.81   77.89
   4  -4   5 1921.61   81.69
   4  -4  -5 1762.12   76.89
  -4   4  -5 1788.22   81.89
  -4  -4   5 1847.42   81.99
  -4   4  -5 1786.12   70.79
   4   4   5 1809.82   63.09
  -5  -4  -5   80.79   21.70
  -5  -4  -5   85.59   16.60
   5  -4   5   59.49   20.00
  -5   4   5   50.39   17.60
   5   4  -5   64.49   15.10
  -5  -4   5   92.99   23.60
  -5   4  -5  102.19   14.80
  -5   4  -5   43.80   20.30
   5  -4  -5   81.69   20.70
  -6  -4  -5  715.33   39.00
  -6   4   5  824.82   55.49
  -6   4   5  732.13   47.90
  -6  -4  -5  729.93   49.30
   6  -4   5  712.53   53.49
  -6   4   5  640.94   39.70
  -6  -4   5  647.04   52.39
  -7   4   5   85.69   44.80
   7  -4   5   15.20   30.50
  -7  -4  -5   10.20   23.60
  -7   4   5   18.50   24.10
  -7   4  -5   13.40   25.60
  -7  -4   5   46.20   28.50
   0  -5   5  630.54   36.80
   0   5   5  639.64   33.90
   0  -5  -5  604.74   35.00
   0   5  -5  695.73   33.30
   0   5  -5  592.24   34.10
   0  -5  -5  666.23   30.30
   1  -5   5  180.68   21.40
  -1   5   5  151.58   16.90
   1   5  -5  180.38   18.60
  -1  -5  -5  176.68   18.20
   1   5  -5  181.78   14.50
  -1   5  -5  140.29   18.00
   1  -5  -5  150.78   19.10
  -1   5  -5  148.09   16.80
  -1  -5   5  174.68   23.50
   1   5   5  154.38   15.90
   1  -5  -5  191.38   15.20
  -2  -5  -5  291.57   23.20
  -2  -5  -5  333.77   22.20
   2  -5   5  290.47   26.10
  -2   5   5  287.97   23.70
   2   5  -5  297.97   23.70
   2   5  -5  311.87   16.10
   2  -5  -5  352.76   22.20
   2   5   5  311.17   21.00
  -2  -5   5  309.07   26.80
  -2   5  -5  328.37   24.20
  -2   5  -5  331.17   27.70
   2  -5  -5  333.57   26.80
   3  -5   5    6.10   21.60
  -3   5   5    5.50   10.60
   3   5  -5   10.00   11.20
  -3  -5  -5   13.30   11.10
  -3  -5  -5    2.70    9.80
  -3   5  -5    0.30   15.70
   3  -5  -5   16.10   11.50
   3  -5  -5   17.80   13.20
  -3   5  -5  -14.10    8.70
   3   5   5    6.70    6.90
  -4   5   5  221.88   27.40
  -4   5   5  195.88   21.20
   4   5  -5  223.38   22.30
  -4  -5  -5  261.47   21.60
   4  -5   5  154.58   26.20
  -4   5  -5  211.08   20.70
  -4  -5   5  172.28   29.90
   4   5   5  177.68   14.20
   4  -5  -5  188.18   26.00
  -4   5  -5  227.08   27.90
  -5   5   5   54.89   15.70
  -5   5   5   32.40   18.00
   5   5  -5   28.90   13.40
   5  -5   5   60.49   23.40
  -5  -5  -5   32.40   12.60
  -5  -5  -5   50.29   18.50
   5  -5  -5   77.59   22.90
  -5   5  -5   64.79   24.40
  -5   5  -5   43.10   14.30
  -5  -5   5    7.90   21.10
  -6  -5  -5   54.09   27.50
  -6   5   5  169.68   32.10
  -6   5   5  101.89   20.70
  -6   5   5  141.49   31.60
   6  -5   5  111.59   29.80
  -6  -5   5   91.29   31.60
   6  -5  -5  149.88   29.60
  -6   5  -5  130.29   32.20
  -7  -5  -5   33.50   24.80
   7  -5   5   10.20   38.60
  -7   5   5   34.00   26.80
  -7   5   5   46.00   30.00
  -7   5  -5   -4.40   26.20
   0  -6   5 1490.45   66.89
   0  -6  -5 1444.46   58.89
   0  -6  -5 1391.66   63.69
   0   6  -5 1459.55   63.99
   0   6   5 1466.65   62.69
   0   6  -5 1439.66   60.59
  -1  -6  -5  194.68   20.80
   1  -6   5  212.58   25.50
   1   6  -5  201.98   22.00
  -1  -6  -5  177.88   17.70
  -1   6   5  192.18   20.00
   1   6  -5  189.88   17.00
  -1   6  -5  226.68   22.10
   1  -6  -5  229.48   18.50
  -1  -6   5  197.48   26.00
   1   6   5  209.78   20.20
   1  -6  -5  227.28   24.30
  -1   6  -5  261.17   23.70
  -2  -6  -5  839.42   42.20
  -2  -6  -5  861.11   43.50
   2   6  -5  809.82   33.70
  -2   6   5  849.61   45.20
   2   6  -5  842.12   44.20
   2  -6   5  841.12   52.89
  -2  -6   5  817.82   53.09
   2   6   5  858.11   41.40
  -2   6  -5  876.31   48.00
   2  -6  -5  833.82   41.20
  -2   6  -5  831.42   43.90
  -3  -6  -5  196.78   20.50
   3  -6   5  188.08   29.50
  -3  -6  -5  169.38   20.80
   3   6  -5  174.78   21.70
  -3   6   5  211.28   23.70
  -3  -6   5  211.08   30.00
  -3   6  -5  174.68   28.40
   3   6   5  198.08   17.70
   3  -6  -5  207.28   28.90
  -3   6  -5  202.38   23.20
   3  -6  -5  207.08   21.80
  -4   6   5  466.65   33.50
  -4  -6  -5  408.36   33.70
   4   6  -5  415.46   31.10
  -4   6   5  429.76   36.70
  -4  -6  -5  460.65   30.00
   4  -6   5  413.26   39.80
   4   6   5  437.76   24.80
  -4   6  -5  425.36   38.90
  -4  -6   5  472.95   40.10
   4  -6  -5  470.75   34.60
   5   6  -5  103.99   21.70
  -5   6   5   67.59   23.30
   5  -6   5   95.79   33.50
  -5  -6  -5   86.69   23.40
  -5   6   5  130.89   24.20
  -5  -6  -5   94.49   16.80
  -5   6  -5  105.99   32.50
  -5  -6   5  136.09   42.80
  -5   6  -5   86.09   20.50
   5  -6  -5  104.69   24.70
  -6   6   5  264.57   30.60
  -6  -6  -5  279.97   39.90
  -6   6   5  395.86   40.80
   6  -6   5  192.08   37.70
  -6  -6   5  310.77   43.50
   6  -6  -5  316.67   38.10
  -6   6  -5  242.38   39.70
   0  -7  -5  379.06   26.90
   0  -7  -5  421.56   33.90
   0   7   5  452.45   44.30
   0   7  -5  431.16   31.70
   0  -7   5  365.86   33.60
   0   7  -5  356.66   28.40
   1   7  -5   37.00   11.90
   1   7  -5   27.40   14.80
  -1  -7  -5   39.30   15.10
   1  -7   5   21.60   17.10
  -1  -7  -5   51.39   14.40
  -1   7   5   39.60   14.50
  -1   7  -5   21.80   14.10
   1  -7  -5   31.60   12.70
  -1   7  -5   50.99   16.60
   1   7   5   21.90   12.40
  -1  -7   5   17.90   14.30
   1  -7  -5   30.70   16.30
   2  -7   5  376.46   35.80
   2   7  -5  425.86   32.80
   2   7  -5  390.86   22.70
  -2  -7  -5  437.06   30.70
  -2  -7  -5  450.25   30.60
  -2   7   5  386.66   31.20
   2   7   5  459.75   29.20
  -2   7  -5  377.26   31.40
   2  -7  -5  451.05   35.80
  -2   7  -5  419.26   34.90
  -2  -7   5  413.56   36.20
   2  -7  -5  377.36   28.30
  -3  -7  -5   62.99   19.20
  -3   7   5   68.59   19.20
  -3  -7  -5   62.09   15.60
   3   7  -5   64.39   16.70
   3  -7   5   34.60   19.30
  -3   7  -5   54.09   18.40
   3  -7  -5   77.09   17.80
   3   7   5   89.79   16.80
  -3  -7   5   45.20   20.50
  -3   7  -5   91.79   25.00
   3  -7  -5   89.99   24.40
   4   7  -5  232.98   27.90
  -4   7   5  294.77   39.60
  -4  -7  -5  288.67   29.60
  -4   7   5  228.88   30.40
   4  -7   5  310.67   37.30
  -4  -7  -5  256.57   24.00
  -4  -7   5  241.38   35.90
   4  -7  -5  308.67   30.50
  -4   7  -5  231.48   27.40
  -4   7  -5  243.78   35.70
   4   7   5  228.38   21.30
  -5  -7  -5   42.90   20.20
  -5   7   5    0.60   21.50
   5   7  -5   48.20   20.50
   5  -7   5   28.70   25.90
  -5  -7  -5   37.60   15.30
  -5   7   5   20.20   18.30
   5  -7  -5   42.90   23.80
  -5  -7   5   14.30   22.70
  -5   7  -5   45.40   20.00
  -5   7  -5   43.80   28.60
  -6   7   5   33.50   28.80
  -6  -7  -5  110.59   29.90
   6  -7   5   24.90   30.20
  -6   7   5   77.39   23.10
  -6   7  -5   53.69   31.80
  -6  -7   5  125.49   31.50
   6  -7  -5   96.59   28.30
   0  -8  -5  406.56   35.20
   0   8  -5  436.76   35.30
   0   8   5  477.15   35.10
   0   8  -5  469.95   32.50
   0  -8  -5  448.36   31.50
   0  -8   5  450.05   38.70
  -1  -8  -5  169.48   22.20
   1  -8   5  178.18   31.50
   1   8  -5  139.89   26.30
  -1  -8  -5  148.69   23.70
  -1   8   5  128.09   22.60
   1   8  -5  132.19   19.80
  -1   8  -5  112.19   23.20
   1  -8  -5   86.39   18.60
  -1  -8   5   66.69   23.00
   1   8   5   96.69   20.00
   1  -8  -5  101.99   24.60
  -1   8  -5   78.79   21.60
  -2  -8  -5  373.16   51.59
   2   8  -5  357.16   32.30
  -2   8   5  355.86   32.40
   2  -8   5  397.26   39.10
  -2  -8  -5  368.36   29.90
   2   8  -5  393.16   23.60
   2   8   5  359.56   29.40
  -2  -8   5  412.16   37.80
  -2   8  -5  431.16   36.80
   2  -8  -5  357.06   36.70
  -2   8  -5  385.16   34.40
   2  -8  -5  364.86   30.10
   3   8  -5  138.09   23.50
  -3   8   5  175.98   28.80
   3  -8   5  120.19   29.20
  -3  -8  -5  153.78   22.10
  -3   8   5  164.48   33.50
  -3  -8  -5  158.68   23.70
   3   8   5  125.99   20.60
  -3  -8   5   72.29   25.20
   3  -8  -5  114.19   29.70
  -3   8  -5  101.09   30.60
   3  -8  -5  138.09   24.10
  -3   8  -5  110.39   24.50
  -4   8   5  239.78   29.50
  -4  -8  -5  286.07   34.00
  -4   8   5  241.08   56.49
   4   8  -5  262.07   31.60
  -4  -8  -5  227.98   24.40
   4  -8   5  264.17   38.60
  -4   8  -5  268.87   41.90
  -4   8  -5  226.08   32.50
   4  -8  -5  248.18   33.20
  -4  -8   5  254.27   38.80
  -5  -8  -5   11.70   21.20
   5   8  -5   17.20   23.60
  -5   8   5  -13.20   26.20
  -5   8   5  -18.40   16.80
   5  -8   5   12.10   26.60
  -5   8  -5    6.30   29.50
  -5  -8   5   48.40   28.10
   5  -8  -5   16.30   23.40
  -5   8  -5  -13.30   20.50
   0   9  -5  -12.40   14.10
   0  -9  -5   25.40   13.90
   0   9   5   12.60   15.10
   0  -9   5    2.70   19.10
   0  -9  -5   -7.40   16.30
   0   9  -5   10.40   17.70
  -1  -9  -5  301.07   29.20
   1   9  -5  244.38   35.30
  -1  -9  -5  347.67   31.30
  -1   9   5  270.27   30.50
   1  -9   5  272.97   36.70
   1   9  -5  220.68   25.40
  -1   9  -5  264.07   31.30
   1   9   5  321.37   30.70
  -1  -9   5  250.57   35.80
   1  -9  -5  269.07   34.20
  -1   9  -5  340.37   33.90
   1  -9  -5  286.37   28.80
   2   9  -5   -4.50   16.70
   2   9  -5    3.50   12.60
  -2  -9  -5   19.40   17.50
   2  -9   5   35.00   23.90
  -2  -9  -5   43.30   16.60
  -2   9   5    3.50   14.70
   2  -9  -5   -4.20   19.50
   2  -9  -5   18.20   15.50
  -2  -9   5  -20.20   19.10
   2   9   5   19.40   14.80
  -2   9  -5   -6.30   19.50
  -2   9  -5  -20.40   17.30
  -3  -9  -5  141.39   23.80
  -3   9   5  170.28   37.00
   3  -9   5  165.58   32.80
  -3  -9  -5  130.89   25.40
   3   9  -5  103.69   24.00
  -3   9  -5  100.39   28.20
  -3  -9   5   95.79   29.80
  -3   9  -5  109.29   47.80
   3   9   5  114.09   21.20
   3  -9  -5  157.18   27.30
   4   9  -5   40.70   21.50
  -4   9   5   10.60   26.40
  -4   9   5  -11.00   17.90
  -4  -9  -5   35.80   16.40
   4  -9   5   22.00   27.90
   4   9   5    4.90   17.80
  -4   9  -5   -7.90   28.20
  -4  -9   5    9.20   26.00
  -4   9  -5   19.10   23.00
   4  -9  -5    8.30   24.80
   5  -9   5   25.20   30.30
  -5   9   5   70.49   35.00
  -5  -9  -5   53.89   25.80
  -5   9   5   54.39   23.80
  -5   9  -5   44.50   27.40
  -5   9  -5   44.20   32.30
   5  -9  -5   38.00   28.20
  -5  -9   5   19.00   32.00
   0  10   5  342.27   35.80
   0 -10  -5  361.36   38.10
   0 -10  -5  388.66   35.00
   0  10  -5  411.66   38.00
   1  10  -5   -6.10   16.80
  -1 -10  -5   55.19   22.00
   1 -10   5   35.20   24.90
  -1  10   5   20.50   24.40
  -1 -10  -5   21.40   19.60
  -1 -10   5   29.50   30.10
  -1  10  -5   47.20   32.40
   1  10   5   40.40   19.30
   1 -10  -5   41.10   21.20
   1 -10  -5   26.30   36.30
  -1  10  -5   32.50   22.40
  -2  10   5  355.06   38.20
  -2  10   5  385.06   41.90
  -2 -10  -5  429.36   38.00
   2 -10   5  410.76   46.60
   2  10  -5  332.77   53.49
  -2 -10  -5  296.27   34.30
   2 -10  -5  372.96   41.60
   2 -10  -5  312.87   35.30
  -2  10  -5  301.37   40.40
  -2  10  -5  357.56   64.49
   2  10   5  372.86   35.70
  -2 -10   5  358.26   47.90
  -3 -10  -5   40.00   28.50
  -3 -10  -5   61.59   21.00
   3 -10   5   50.59   31.30
   3  10  -5   44.60   23.00
  -3  10   5   72.19   24.20
  -3  10   5   52.09   32.60
  -3 -10   5   29.70   25.90
   3  10   5   73.19   22.60
  -3  10  -5   73.39   27.30
  -3  10  -5   91.89   31.40
   4  10  -5  265.17   36.40
  -4 -10  -5  266.77   38.30
   4 -10   5  234.08   44.70
  -4  10   5  295.97   35.50
  -4  10   5  189.78   41.40
  -4  10  -5  227.38   42.50
   4  10   5  286.77   56.69
  -4 -10   5  240.78   44.40
   4 -10  -5  246.68   37.20
  -4  10  -5  228.88   37.30
   0 -11  -5   61.19   22.50
   0  11  -5  139.29   33.40
   0 -11  -5   91.59   26.80
   0  11   5   62.09   25.60
   0  11  -5   98.29   27.40
   0 -11   5   54.89   29.50
  -1  11   5   68.89   27.00
  -1 -11  -5   79.99   25.40
   1 -11   5  173.28   39.60
  -1 -11  -5   76.19   25.30
   1  11  -5   48.00   27.30
  -1  11   5   80.99   28.80
   1  11  -5   30.60   23.80
  -1  11  -5   97.79   30.30
   1 -11  -5   65.49   28.30
  -1  11  -5   76.49   30.30
   1 -11  -5   67.09   25.60
   1  11   5   90.29   25.30
  -1 -11   5  109.29   36.10
   2 -11   5   27.80   29.10
  -2  11   5   43.30   25.50
  -2  11   5   46.10   23.10
  -2 -11  -5   31.80   25.40
  -2 -11  -5    2.70   21.50
   2  11  -5  -10.40   23.70
  -2 -11   5   26.60   28.30
  -2  11  -5   24.30   25.70
   2  11   5   39.20   23.00
  -2  11  -5   52.89   28.80
   2 -11  -5    9.60   21.30
  -3  11   5   35.10   25.40
   3  11  -5   72.19   28.60
  -3  11   5   60.59   33.60
  -3 -11  -5   37.90   22.80
   3 -11   5   14.90   31.30
   3  11   5   37.80   24.20
  -3 -11   5   55.69   30.60
  -3  11  -5   28.10   26.00
  -3  11  -5   43.10   31.80
   3 -11  -5   32.30   26.30
   0 -12   5   11.70   29.30
   0  12   5   -2.60   26.90
   0  12  -5    4.60   27.00
   0 -12  -5   -4.70   25.10
   0  12  -5    4.00   27.70
   0  12   5   38.30   24.80
  -1  12   5  224.98   41.60
  -1 -12  -5  178.68   34.00
   1 -12   5  298.77   50.59
  -1  12   5  234.58   42.30
   1  12  -5  157.88   37.00
  -1 -12   5  196.78   49.00
   1 -12  -5  241.98   35.00
  -1  12  -5  283.07   45.70
   1  12   5  216.18   39.50
   1  12   5  168.08   32.80
  -1  12  -5  196.08   38.20
  -2 -12  -5   41.70   26.70
  -2  12   5   23.10   39.70
   2 -12   5  -18.70   28.80
  -2  12   5  -11.50   20.80
   2  12   5  -19.30   30.30
  -2  12  -5   25.10   39.20
   2 -12  -5   13.00   24.20
  -2 -12   5   44.50   35.30
   2  12   5   16.20   24.90
  -2  12  -5   17.60   33.90
   0   0   6 2088.19   67.89
   0   0  -6 2067.29   75.69
   0   0  -6 2031.50   67.79
  -1   0  -6   28.70    8.10
   1   0   6   30.70    5.40
  -1   0  -6   31.60    5.50
  -1   0  -6   28.80    9.00
   1   0  -6   33.80    9.30
  -1   0   6   19.00    5.50
   1   0  -6   24.40    7.80
   2   0  -6 1065.49   44.50
  -2   0  -6 1039.10   40.80
  -2   0   6 1042.20   41.50
   2   0   6  992.90   40.40
   2   0  -6  997.00   41.50
  -2   0  -6 1038.90   46.30
   3   0   6   10.30    5.30
  -3   0   6   20.20    8.80
   3   0   6    8.30    8.60
   3   0  -6   18.20    8.80
   3   0  -6    9.00    7.20
  -3   0  -6   14.00    6.00
  -3   0  -6   13.00   10.70
   4   0  -6  711.73   35.50
  -4   0   6  721.53   38.50
  -4   0  -6  707.73   40.60
  -4   0   6  673.33   30.60
  -4   0  -6  642.94   25.00
   4   0   6  655.73   37.10
   4   0   6  649.64   23.30
  -5   0  -6    7.90   14.10
   5   0  -6  -13.10    9.70
  -5   0   6   14.00   15.60
  -5   0  -6   -4.50   12.00
  -6   0  -6  462.95   38.20
  -6   0   6  452.35   41.40
   6   0  -6  498.15   29.10
  -7   0  -6   17.30   23.70
  -7   0   6  -29.00   22.60
  -7   0  -6   14.30   21.20
   0   1  -6   61.49    7.30
   0   1  -6   68.19   11.60
   0  -1  -6   80.19   12.70
   0  -1  -6   83.69   12.50
   0   1  -6   85.19   11.80
   0  -1   6   68.09    8.20
  -1  -1  -6  207.88    9.70
  -1   1   6  200.38   10.00
  -1  -1  -6  214.88   14.60
   1   1  -6  187.68   12.20
  -1   1   6  215.08   10.60
   1  -1   6  200.88   12.90
   1   1  -6  183.18   15.20
  -1  -1  -6  196.68    9.70
  -1  -1  -6  195.38   16.00
   1   1  -6  213.88   14.40
  -1   1  -6  188.98   12.60
  -1   1  -6  215.78   15.50
   1  -1  -6  192.88   15.60
  -1  -1   6  196.38   13.30
  -1   1  -6  199.18   16.50
   2  -1   6  178.68   14.30
   2   1  -6  200.78   13.20
  -2   1   6  180.78   13.20
   2   1  -6  196.98   16.60
  -2  -1  -6  173.48   12.60
  -2  -1  -6  186.48   17.00
  -2  -1  -6  187.38   13.10
  -2  -1   6  167.78   12.10
  -2   1  -6  185.28   14.30
   2  -1  -6  177.58   15.80
  -2   1  -6  172.08   18.00
   2  -1  -6  207.28   17.30
  -3  -1  -6   70.39   12.30
  -3  -1  -6   75.09    9.30
   3  -1   6   57.29   13.20
  -3   1   6   67.69   12.60
   3   1  -6   77.29   13.70
  -3  -1  -6   88.09   17.10
   3   1  -6   75.49    9.40
  -3   1  -6   46.30   13.50
  -3   1  -6   68.29   10.10
  -3  -1   6   50.89   13.10
  -3  -1   6   53.69    8.20
   3  -1  -6   80.19   14.20
   3   1   6   58.79    8.10
   3  -1  -6   53.89   10.90
   4   1  -6  171.68   17.30
  -4   1   6  159.68   17.00
   4  -1   6  184.78   23.80
  -4  -1  -6  189.08   24.30
   4  -1   6  150.58   10.50
  -4   1   6  155.28   20.70
  -4  -1  -6  152.68   18.40
  -4   1  -6  158.78   11.40
  -4  -1   6  132.49   20.30
  -4  -1   6  131.49   10.90
   4  -1  -6  142.79   16.80
  -4   1  -6  144.69   22.10
  -5   1   6  209.88   28.50
   5   1  -6  167.78   18.60
  -5   1   6  180.18   19.30
  -5  -1  -6  174.98   24.30
   5  -1   6  214.98   28.80
  -5   1  -6  180.58   26.70
   5  -1  -6  139.79   19.90
  -5  -1   6  129.99   24.20
   6   1  -6   90.59   15.80
  -6  -1  -6  150.38   25.20
  -6   1   6  124.49   26.80
  -6   1   6  121.99   18.00
  -6   1   6   96.19   17.70
  -6  -1  -6   90.19   23.20
  -6  -1   6  111.09   27.70
  -6   1  -6   70.69   25.10
  -6   1  -6  103.99   24.70
  -7  -1  -6   13.80   21.40
  -7   1   6    8.10   26.30
  -7  -1  -6    8.20   20.10
  -7  -1   6   59.79   27.50
  -7   1  -6   12.30   25.10
  -7   1  -6   31.70   23.60
   0  -2   6 1475.85   54.49
   0   2  -6 1362.56   55.99
   0   2  -6 1396.26   55.39
   0  -2  -6 1442.66   57.69
   0  -2  -6 1454.75   56.29
  -1  -2  -6 2376.36   87.09
  -1   2   6 2280.17   77.59
   1   2  -6 2263.87   84.99
   1  -2   6 2299.27   82.69
  -1  -2  -6 2331.47   76.99
   1   2  -6 2304.07   81.89
  -1  -2  -6 2321.87   76.59
   1  -2  -6 2393.16   86.19
  -1   2  -6 2303.47   84.39
  -1  -2   6 2357.06   83.89
   1  -2  -6 2420.06   86.79
  -1   2  -6 2353.86   86.29
  -2  -2  -6 1612.04   61.69
  -2   2   6 1656.93   61.69
  -2  -2  -6 1702.63   61.49
  -2  -2  -6 1696.33   67.79
   2  -2   6 1709.33   65.39
   2   2  -6 1696.83   59.99
   2   2  -6 1723.83   66.69
   2  -2  -6 1762.12   62.19
  -2  -2   6 1660.03   59.29
  -2   2  -6 1694.63   68.69
  -2  -2   6 1719.13   66.29
   2  -2  -6 1770.92   67.49
   2  -2  -6 1764.22   66.99
  -2   2  -6 1670.53   63.89
   3   2  -6 1351.36   56.09
  -3  -2  -6 1349.07   58.29
   3  -2   6 1346.27   57.89
  -3  -2  -6 1351.86   54.39
   3   2  -6 1331.57   45.30
  -3  -2  -6 1359.06   49.60
  -3   2   6 1375.56   55.19
  -3   2  -6 1407.76   59.39
  -3   2  -6 1409.66   60.49
  -3  -2   6 1326.37   57.89
  -3  -2   6 1278.27   45.00
   3  -2  -6 1372.66   57.29
   3  -2  -6 1364.66   57.09
  -4  -2  -6  729.53   40.70
  -4  -2  -6  765.22   39.80
  -4   2   6  790.52   41.50
   4   2  -6  812.52   39.20
   4  -2   6  767.92   42.40
   4  -2  -6  707.53   39.00
  -4  -2   6  727.43   42.60
  -4   2  -6  745.03   47.90
  -4   2  -6  754.72   32.80
   4  -2  -6  753.82   39.80
   5  -2   6  661.53   43.60
  -5  -2  -6  626.54   40.00
  -5   2   6  649.04   42.30
   5   2  -6  655.63   34.30
  -5  -2  -6  628.14   43.20
  -5   2   6  592.24   36.00
  -5  -2   6  617.04   43.40
   5  -2  -6  644.54   36.70
  -5   2  -6  640.84   43.70
  -6   2   6  163.48   25.60
   6  -2   6  202.78   34.10
  -6  -2  -6  149.69   25.90
  -6   2   6  144.09   19.70
  -6   2   6  173.88   29.80
   6   2  -6  174.08   22.70
  -6  -2  -6  197.18   26.20
  -6   2  -6  150.38   30.90
  -6  -2   6   97.09   26.40
  -7  -2  -6  192.98   33.00
  -7   2   6  175.38   32.60
  -7  -2  -6  179.98   28.80
  -7   2  -6  201.98   36.40
  -7   2  -6  140.59   31.80
  -7  -2   6  129.09   35.70
   0  -3  -6  499.95   26.60
   0   3  -6  500.95   26.40
   0  -3  -6  497.95   19.00
   0   3  -6  514.85   27.60
   0   3   6  506.75   19.10
   0  -3  -6  507.05   28.30
   0  -3   6  487.95   27.10
   1   3  -6   38.40    8.60
  -1  -3  -6   27.10    8.10
  -1   3   6   31.80    6.00
   1  -3   6   36.10    9.60
   1   3  -6   33.60    9.90
  -1  -3  -6   34.10    9.30
  -1  -3  -6   39.50    6.80
  -1  -3  -6   24.90    9.00
   1  -3  -6   36.40   10.90
   1  -3  -6   35.70    6.40
  -1  -3   6   33.80   10.30
  -1   3  -6   34.70   10.60
  -1   3  -6   33.00   10.10
   1  -3  -6   34.60    9.80
   2  -3   6  409.46   25.00
   2   3  -6  359.06   17.50
  -2  -3  -6  368.96   21.20
  -2  -3  -6  374.36   20.10
   2   3  -6  360.16   24.10
  -2  -3  -6  386.86   25.50
  -2   3  -6  370.26   25.70
   2  -3  -6  375.16   25.50
   2  -3  -6  360.56   19.80
  -2   3  -6  366.86   23.20
  -2  -3   6  376.16   25.30
   2  -3  -6  338.37   24.00
   3  -3   6  108.59   18.40
  -3  -3  -6  129.29   19.30
  -3  -3  -6  125.39   14.70
   3   3  -6  108.99   16.70
  -3   3  -6  127.19   22.20
   3   3   6  101.09   10.30
   3  -3  -6  125.79   16.30
  -3  -3   6  124.89   19.30
   3  -3  -6  122.79   18.30
   3  -3  -6   95.79   17.60
  -3   3  -6  126.89   14.30
   4  -3   6  146.39   24.90
  -4  -3  -6  147.79   21.10
   4   3  -6  190.48   19.70
  -4   3   6  167.08   22.50
  -4  -3  -6  154.58   19.30
   4  -3  -6  121.09   19.60
  -4   3  -6  135.69   22.60
  -4  -3   6  136.49   21.40
   4  -3  -6  149.49   22.00
   4   3   6  119.19    7.80
  -4   3  -6  153.68   17.60
   4   3   6  123.19    8.10
   4  -3  -6  182.08   22.90
  -5  -3  -6   63.89   17.90
  -5   3   6   60.09   19.70
   5  -3   6   43.10   18.80
   5   3  -6   91.59   15.90
  -5   3   6   85.59   17.60
  -5  -3  -6   57.99   17.10
  -5   3  -6   43.70   12.00
  -5  -3   6   50.49   20.20
  -5   3  -6   54.79   22.30
  -6   3   6  125.79   19.50
  -6   3   6   86.69   25.30
  -6  -3  -6  131.19   26.30
  -6   3   6   73.89   22.90
  -6  -3  -6  150.28   23.10
  -6  -3   6  123.99   40.20
  -6   3  -6   54.89   24.20
  -7   3   6  -14.20   23.00
  -7  -3  -6   13.70   20.70
  -7   3  -6   19.10   21.90
  -7   3  -6   22.30   28.10
  -7  -3   6   16.50   28.30
   0  -4  -6   23.60   10.30
   0  -4  -6   25.70    5.80
   0   4  -6   19.30    9.80
   0  -4   6   35.90   11.80
   0   4   6   24.20    5.30
   0  -4  -6   27.00    9.70
   0   4  -6   27.10    9.40
   1  -4   6   98.69   16.70
  -1  -4  -6   97.09   16.50
   1   4  -6   88.19   14.40
  -1   4  -6   49.20   12.60
  -1   4  -6   59.99   14.30
  -1  -4   6   48.70   12.20
   1  -4  -6   40.90   12.00
   1   4   6   37.30    7.40
   1  -4  -6   39.00   13.00
   1  -4  -6   43.90    7.80
   2  -4   6  199.08   20.30
   2   4  -6  204.78   12.40
  -2  -4  -6  219.58   19.80
   2   4  -6  212.68   20.60
  -2  -4   6  189.48   20.10
   2  -4  -6  198.38   21.40
   2  -4  -6  160.08   17.70
   2   4   6  163.78   15.00
   2  -4  -6  179.48   15.00
  -2   4  -6  205.48   22.50
  -2   4  -6  142.69   17.90
   3  -4   6  111.19   20.20
  -3  -4  -6  135.59   18.40
  -3  -4  -6  108.79   18.60
   3   4  -6  115.89   18.40
   3   4   6   74.39   11.30
   3  -4  -6   70.19   16.40
  -3  -4   6   66.69   17.80
   3  -4  -6   95.69   18.60
   3  -4  -6   88.49   14.40
  -3   4  -6   72.79   19.70
  -3   4  -6   60.89   13.60
   4   4  -6  106.09   18.30
   4  -4   6   95.19   21.60
  -4  -4  -6   85.99   17.00
  -4   4   6   96.79   18.10
  -4  -4  -6  106.39   18.90
   4  -4  -6   97.69   19.00
   4   4   6   79.79    8.80
  -4  -4   6   99.69   22.90
  -4   4  -6   74.79   20.30
  -4   4  -6   96.39   16.50
  -5  -4  -6   32.90   15.70
   5  -4   6   43.90   23.10
  -5  -4  -6   14.30   14.70
  -5   4   6   34.40   17.70
  -5   4   6   18.70   14.70
  -5   4   6   16.60   15.70
   5   4  -6    1.20   11.80
  -5   4  -6   13.90   11.70
   5  -4  -6   16.30   15.40
  -5   4  -6   34.90   23.70
  -5  -4   6   28.10   21.10
  -6  -4  -6    3.10   18.40
  -6  -4  -6    0.50   13.70
  -6   4   6   75.59   24.00
  -6   4   6   42.00   16.60
   6  -4   6    1.70   22.60
  -6   4  -6  -11.80   21.90
  -6  -4   6   27.60   23.70
  -7   4   6   65.49   32.30
  -7  -4  -6   -1.80   23.00
  -7   4   6   48.40   26.60
   7  -4   6   21.60   30.40
  -7   4  -6   15.10   27.20
  -7  -4   6   12.40   27.30
   0  -5   6   15.00   10.80
   0   5  -6   -6.40    8.20
   0  -5  -6    4.70    6.00
   0   5   6   -0.30    8.10
   0   5  -6    7.10    9.40
   0  -5  -6   10.30   10.80
  -1  -5  -6   93.69   13.10
  -1  -5  -6   96.29   16.40
   1   5  -6  105.69   18.50
  -1   5   6  106.69   17.60
   1   5  -6   91.39   14.60
   1  -5   6   85.89   18.30
  -1   5  -6  110.69   18.60
  -1  -5   6   56.09   17.00
   1  -5  -6  102.19   17.70
   1   5   6   95.59   15.90
  -1   5  -6  106.19   17.60
   1  -5  -6  114.29   15.20
   1  -5  -6  116.19   19.60
  -2  -5  -6   55.99   12.00
   2  -5   6   50.79   15.20
  -2   5   6   46.00   14.60
   2   5  -6   36.60    7.60
   2   5  -6   62.99   15.60
  -2  -5  -6   51.79   14.40
   2   5  -6   40.70    7.70
   2  -5  -6   39.60   10.40
  -2   5  -6   28.70   12.20
   2  -5  -6   32.70   15.20
   2   5   6   47.10   12.40
  -2  -5   6   31.40   14.60
  -2   5  -6   47.40   14.50
  -3  -5  -6   71.29   15.30
   3  -5   6   42.40   16.80
   3   5  -6   81.69   17.30
  -3  -5  -6   51.59   13.10
   3   5   6   55.59   11.30
   3  -5  -6   76.09   14.90
  -3   5  -6   40.00   14.70
  -3   5  -6   42.00   19.10
  -3  -5   6   48.30   17.90
   3  -5  -6   67.79   22.30
  -4  -5  -6   61.89   15.50
   4  -5   6   64.29   20.70
  -4   5   6   44.00   16.60
   4   5  -6   60.89   16.80
  -4   5   6   61.29   22.30
   4  -5  -6   49.99   15.90
   4  -5  -6   58.99   20.60
  -4   5  -6   12.90   19.10
  -4  -5   6   20.00   17.40
  -4   5  -6   21.50   13.50
  -5   5   6   46.90   20.50
   5  -5   6   78.99   24.60
  -5  -5  -6   71.49   19.20
  -5   5   6   73.29   17.90
   5   5  -6   63.19   16.90
  -5   5  -6   54.99   15.80
   5  -5  -6   45.00   19.50
  -5   5  -6   60.49   22.70
  -5  -5   6   45.50   23.20
  -6   5   6   23.60   18.40
  -6   5   6   13.10   26.80
   6  -5   6   35.20   27.30
  -6   5   6   11.20   22.00
  -6  -5  -6   48.00   23.90
  -6   5  -6   48.10   28.00
  -6  -5   6   36.80   25.90
   7  -5   6   50.89   35.20
  -7   5   6   49.10   32.50
  -7  -5  -6   45.20   25.20
  -7   5   6   72.09   30.30
  -7  -5   6   43.20   33.90
  -7   5  -6   88.49   39.40
   0   6  -6   31.50   12.40
   0  -6  -6   24.20    9.70
   0  -6   6   14.50   14.10
   0   6  -6   35.20   12.20
   0  -6  -6   20.80   11.80
   0   6   6   18.40   11.00
   1   6  -6 1783.12   68.79
   1   6  -6 1869.81   76.89
  -1   6   6 1780.92   75.69
   1  -6   6 1750.82   78.69
  -1  -6  -6 1769.72   75.89
  -1  -6  -6 1762.22   69.19
  -1   6  -6 1823.62   75.79
  -1  -6   6 1784.22   78.89
   1   6   6 1795.22   73.59
   1  -6  -6 1771.72   78.19
  -1   6  -6 1700.33   74.89
   1  -6  -6 1769.72   68.59
   2   6  -6   22.50    7.80
  -2  -6  -6   20.10   12.00
  -2   6   6    4.10   11.20
   2  -6   6   37.90   18.60
   2   6  -6   21.60   13.00
  -2  -6  -6   23.30   11.30
  -2   6  -6   23.30   13.80
   2  -6  -6   16.00   15.40
  -2  -6   6   44.80   17.80
   2   6   6   16.90   10.50
   2  -6  -6    6.60    9.80
  -2   6  -6   32.70   18.50
  -3  -6  -6 1002.80   49.80
  -3  -6  -6  963.00   48.70
   3   6  -6 1055.19   57.89
  -3   6   6  961.00   51.19
   3  -6   6 1006.60   55.79
   3  -6  -6  919.81   47.50
  -3   6  -6  962.90   66.99
  -3   6  -6 1024.10   57.39
  -3  -6   6  994.80   56.79
   3  -6  -6  979.10   54.89
   3   6   6  957.90   44.80
  -4   6   6   18.50   20.70
  -4  -6  -6   22.70   14.70
   4   6  -6   26.40   15.90
   4  -6   6   29.70   20.70
  -4  -6  -6    7.40   14.20
  -4   6   6   19.20   13.00
  -4  -6   6   44.50   22.40
   4  -6  -6   31.10   16.20
  -4   6  -6   19.60   15.70
  -4   6  -6   18.90   20.30
   4   6   6   23.50    9.70
  -5   6   6  572.74   45.20
  -5   6   6  585.54   40.80
   5   6  -6  545.35   37.40
   5  -6   6  555.84   71.59
  -5  -6  -6  558.44   42.60
  -5  -6  -6  507.15   34.30
   5  -6  -6  623.74   44.50
  -5   6  -6  571.44   36.80
  -5  -6   6  572.04   50.59
   6  -6   6   13.00   27.30
  -6   6   6   20.10   25.90
  -6  -6  -6  -17.30   20.30
  -6   6   6   17.50   21.20
  -6   6   6   31.30   25.20
   6  -6  -6   24.60   23.10
  -6  -6   6   44.60   28.60
  -6   6  -6   41.10   30.50
   0   7   6    8.80   11.90
   0  -7  -6    3.70   10.90
   0  -7  -6   14.10   10.70
   0   7  -6   17.70   14.60
   0  -7   6   -9.40   16.00
   0   7  -6   21.50   12.60
  -1  -7  -6  229.88   21.00
  -1  -7  -6  227.68   27.00
   1   7  -6  214.88   20.60
   1   7  -6  262.97   27.70
  -1   7   6  205.58   24.30
   1  -7   6  258.17   30.70
   1   7   6  208.58   24.40
   1  -7  -6  217.88   26.70
  -1   7  -6  238.78   26.20
   1  -7  -6  212.58   20.20
  -1  -7   6  224.68   31.00
   2   7  -6   28.00   15.50
  -2   7   6   28.80   15.90
   2  -7   6   39.20   18.10
  -2  -7  -6   35.60   12.50
  -2  -7  -6   10.10   20.10
   2   7  -6   11.20   10.70
   2   7   6   32.90   13.10
  -2  -7   6   -2.30   16.70
  -2   7  -6   35.10   16.70
   2  -7  -6   24.30   18.10
   2  -7  -6    8.80   10.40
  -2   7  -6    4.10   18.80
   3  -7   6  129.19   29.70
   3   7  -6  105.09   21.80
  -3  -7  -6  119.69   21.20
  -3   7   6  145.09   25.30
  -3   7  -6  181.68   26.20
  -3   7  -6  122.89   27.90
  -3  -7   6  123.89   27.80
   3   7   6  143.59   20.10
   3  -7  -6  147.49   22.10
   3  -7  -6  140.99   27.20
   4  -7   6    7.20   23.10
  -4   7   6   26.60   16.60
  -4  -7  -6   12.70   12.90
  -4   7   6   11.40   21.10
   4   7  -6   -8.80   15.90
  -4  -7  -6    0.20   14.90
  -4   7  -6    2.80   16.30
   4   7   6   -4.10   11.00
  -4   7  -6   20.10   20.70
  -4  -7   6   10.10   22.50
   4  -7  -6    5.20   15.20
   5  -7   6   64.59   28.30
  -5  -7  -6   56.39   15.20
  -5  -7  -6   62.49   22.40
   5   7  -6   94.29   23.80
  -5   7   6   56.69   27.80
  -5   7   6   99.39   30.80
  -5  -7   6  112.99   33.40
  -5   7  -6   56.99   21.10
  -5   7  -6   66.69   31.50
   5  -7  -6   67.79   27.40
  -6   7   6  -13.40   19.90
  -6  -7  -6   16.60   24.40
   6  -7   6   18.00   27.00
  -6   7   6   -3.90   25.90
  -6  -7   6   23.10   30.20
   6  -7  -6    2.00   23.80
  -6   7  -6   -1.80   27.70
   0  -8  -6  239.28   32.30
   0  -8   6  231.88   33.90
   0  -8  -6  229.98   22.70
   0   8   6  225.88   26.30
   0   8  -6  193.48   25.60
   0   8  -6  200.88   28.60
  -1  -8  -6  665.03   42.90
  -1   8   6  593.74   41.10
   1  -8   6  617.04   47.30
  -1  -8  -6  649.04   37.90
   1   8  -6  631.24   44.20
   1   8  -6  599.34   36.40
  -1   8  -6  616.64   42.60
  -1   8  -6  560.54   41.70
   1  -8  -6  601.84   43.60
   1   8   6  602.54   40.10
   1  -8  -6  649.43   37.40
  -1  -8   6  593.94   45.50
  -2   8   6  125.99   24.00
   2   8  -6  169.78   17.20
   2  -8   6  156.78   30.50
  -2  -8  -6  163.48   24.60
  -2  -8  -6  189.68   25.80
   2   8  -6  165.88   27.70
   2  -8  -6  161.78   29.10
  -2  -8   6  175.78   32.60
  -2   8  -6  160.48   27.50
   2   8   6  187.58   22.60
  -2   8  -6  183.18   28.40
   3  -8   6  222.48   39.70
  -3  -8  -6  224.18   28.60
  -3  -8  -6  214.08   29.40
   3   8  -6  224.98   31.70
  -3   8   6  201.98   31.00
   3  -8  -6  265.87   27.40
   3  -8  -6  207.38   33.40
  -3   8  -6  276.27   39.90
  -3  -8   6  260.67   40.70
   3   8   6  213.08   24.80
  -3   8  -6  198.88   29.30
   4  -8   6  149.99   35.20
  -4   8   6   97.19   30.40
  -4  -8  -6  140.99   27.80
   4   8  -6  106.49   26.50
  -4  -8  -6   95.49   20.40
  -4  -8   6  120.09   31.10
  -4   8  -6  100.99   31.50
   4   8   6  126.09   21.80
  -4   8  -6  123.09   26.10
   4  -8  -6  149.88   27.60
   5  -8   6  247.28   45.30
   5   8  -6  211.58   33.00
  -5   8   6  143.39   35.70
  -5   8   6  222.28   33.10
  -5  -8  -6  243.78   36.10
   5  -8  -6  218.38   33.90
  -5   8  -6  146.79   34.00
  -5  -8   6  268.07   45.10
  -5   8  -6  258.97   46.20
   0   9   6    4.20   13.60
   0  -9   6   23.80   20.80
   0  -9  -6   -2.80   17.70
   0   9  -6   -4.90   18.10
   0   9  -6   -2.80   15.60
   0  -9  -6   23.10   14.50
  -1  -9  -6   28.70   15.40
   1   9  -6   -3.30   19.50
   1  -9   6   42.60   25.00
   1   9  -6   41.40   17.30
  -1   9   6   17.80   18.40
  -1  -9  -6   44.90   19.80
   1  -9  -6   33.50   17.50
  -1   9  -6   19.30   20.00
  -1   9  -6   31.40   21.30
  -1  -9   6   48.30   24.10
   1  -9  -6   47.20   23.40
   1   9   6   35.80   17.10
   2   9  -6   12.20   18.50
   2  -9   6   44.00   25.70
  -2  -9  -6   31.50   16.30
   2   9  -6    6.30   13.70
  -2   9   6   15.60   17.20
  -2  -9  -6   10.50   18.10
  -2   9  -6   53.29   23.00
  -2  -9   6   20.20   23.10
  -2   9  -6   26.40   22.80
   2   9   6   18.50   15.50
   2  -9  -6    7.40   20.00
   2  -9  -6   -9.40   14.00
  -3  -9  -6   63.09   20.10
   3   9  -6   53.39   23.40
  -3  -9  -6   33.20   19.60
   3  -9   6   55.29   26.30
  -3   9   6   36.40   21.30
  -3   9   6   56.09   26.40
   3   9   6   94.59   20.90
  -3   9  -6   40.50   29.60
  -3   9  -6   48.20   31.90
   3  -9  -6   62.29   21.50
  -3  -9   6   52.79   26.60
   3  -9  -6   38.50   26.00
  -4  -9  -6   13.10   28.60
  -4   9   6   44.60   29.10
   4  -9   6   37.80   31.70
  -4   9   6   18.50   20.60
  -4  -9  -6   14.60   18.00
   4  -9  -6   21.50   32.20
  -4  -9   6   40.40   28.20
   4   9   6  -14.30   19.10
  -4   9  -6   23.70   27.90
  -4   9  -6   21.60   23.60
  -5   9   6   21.60   22.40
  -5  -9  -6   87.09   29.00
   5   9  -6  -35.80   39.00
  -5   9   6   79.79   51.99
   5  -9  -6  -20.20   23.60
  -5   9  -6  -30.00   23.20
  -5  -9   6   84.89   59.69
   0  10   6  799.32   64.69
   0 -10  -6  834.82   47.70
   0 -10  -6  768.92   59.89
   0 -10   6  788.32   58.09
   0  10  -6  768.12   51.29
   1 -10   6   -4.70   25.20
   1  10  -6   31.30   19.60
  -1  10   6    3.20   17.10
  -1 -10  -6    0.20   18.50
  -1 -10  -6   17.80   17.90
   1  10  -6   14.70   20.70
  -1 -10   6   48.90   25.10
   1 -10  -6   12.90   17.40
  -1  10  -6   21.30   21.10
  -1  10  -6   25.70   24.00
   1 -10  -6   16.40   23.00
  -2  10   6  508.75   44.40
  -2 -10  -6  393.06   38.80
   2 -10   6  483.95   48.60
  -2 -10  -6  427.16   40.40
   2  10  -6  430.06   42.70
  -2  10  -6  421.66   45.30
   2  10   6  451.55   45.30
  -2  10  -6  430.96   43.90
   2 -10  -6  457.45   38.10
   2 -10  -6  561.54   49.50
  -2 -10   6  436.36   47.20
  -3  10   6   35.00   28.00
  -3 -10  -6   34.90   22.40
  -3 -10  -6   14.60   18.90
   3  10  -6   48.20   23.30
  -3  10   6   41.20   23.10
   3 -10   6   45.60   30.20
   3  10   6   -7.70   19.40
  -3 -10   6   10.20   24.80
  -3  10  -6  -20.40   23.40
  -3  10  -6   30.50   28.50
  -4  10   6  241.98   46.00
   4  10  -6  239.38   38.00
  -4 -10  -6  246.98   37.20
   4 -10   6  246.38   45.50
  -4  10   6  354.36   39.60
  -4 -10   6  259.67   47.10
  -4  10  -6  235.48   39.40
   4 -10  -6  299.47   39.90
  -4  10  -6  248.48   44.60
   0  11   6   -3.00   19.40
   0 -11  -6   44.10   25.20
   0  11  -6   30.20   25.70
   0 -11   6   37.10   27.20
   0  11  -6   29.20   26.40
   0 -11  -6   46.70   23.90
   1  11  -6   18.80   25.20
   1  11  -6  -25.90   24.80
  -1 -11  -6   12.20   24.00
   1 -11   6  -12.10   25.90
  -1 -11  -6    6.60   21.30
  -1  11   6   35.20   22.80
  -1  11  -6   15.80   23.10
  -1 -11   6   30.70   27.30
   1 -11  -6    1.70   19.70
   1 -11  -6   37.30   26.60
  -1  11  -6   -3.60   25.20
   1  11   6   23.10   20.60
  -2  11   6   40.40   23.00
  -2  11   6   58.39   31.50
   2  11  -6   43.50   26.10
  -2 -11  -6   29.80   22.90
   2 -11   6   45.70   27.90
  -2 -11  -6   42.40   24.50
   2  11   6   38.70   21.40
  -2  11  -6   28.80   27.70
  -2  11  -6   78.89   27.90
  -2 -11   6   23.70   29.50
   2 -11  -6    4.80   20.90
  -3  11   6   -5.20   36.50
  -3 -11  -6    3.30   22.80
  -3 -11  -6    0.40   25.40
   3  11  -6   28.30   28.60
   3 -11  -6   40.50   25.40
   3  11   6   -1.60   22.60
  -3  11  -6   10.90   24.80
  -3  11  -6  -17.20   29.80
   0  12  -6   18.60   30.40
   0  12   6   16.90   29.20
   0 -12  -6   52.39   28.10
   0 -12  -6   36.00   27.30
   0  12   6    6.70   25.80
  -1  12   6   14.80   41.80
  -1 -12  -6  -19.20   26.60
  -1  12   6   -1.40   31.30
   1 -12   6   75.89   48.80
  -1 -12  -6   57.99   26.10
  -1  12  -6   20.60   39.70
  -1 -12   6   18.90   38.40
   1  12   6    7.60   21.70
   1 -12  -6    4.70   24.80
  -1  12  -6   27.70   31.20
   0   0  -7    2.90    2.60
   0   0  -7    1.80    6.70
   0   0  -7   -3.90    6.70
   0   0   7    0.90    2.60
  -1   0  -7 2892.51   99.99
  -1   0  -7 2741.23   95.09
   1   0  -7 2767.02  101.39
  -1   0   7 2817.42   94.19
   1   0  -7 2744.83  100.19
  -1   0   7 2794.32   94.49
   1   0   7 2803.32   93.09
  -1   0  -7 2919.31  103.19
   2   0  -7   98.89   15.40
   2   0   7   87.79   10.20
  -2   0  -7  124.29   18.40
  -2   0   7   88.29   10.70
  -2   0  -7  129.39   16.10
   3   0   7 1113.89   47.80
   3   0  -7 1093.19   49.70
  -3   0  -7 1088.99   53.39
  -3   0  -7 1161.28   44.50
  -3   0   7 1153.58   49.40
  -4   0  -7    1.40   12.10
   4   0  -7   -0.20    9.60
   4   0   7    5.00    6.10
  -4   0   7   -1.30   10.40
  -4   0  -7  -11.80    9.10
   4   0  -7   16.90   14.10
  -4   0  -7    6.10    5.30
   4   0   7   -8.00   10.20
  -5   0  -7  734.53   43.80
  -5   0   7  757.52   46.40
   5   0  -7  755.42   40.80
  -5   0  -7  779.22   47.50
  -6   0  -7   25.90   18.50
  -6   0  -7   29.20   22.10
  -6   0   7   -4.30   20.40
   6   0  -7    3.50   14.00
  -7   0  -7  248.68   36.30
  -7   0  -7  250.57   36.80
  -7   0   7  318.77   42.90
   0  -1  -7  743.43   35.90
   0   1  -7  727.63   29.40
   0   1  -7  727.93   34.50
   0  -1   7  738.03   29.70
   0   1  -7  755.92   35.30
   0  -1  -7  733.63   34.30
  -1   1   7  639.94   24.40
  -1  -1  -7  688.33   34.10
   1   1  -7  658.03   33.00
  -1  -1  -7  677.93   24.00
  -1   1   7  642.84   24.60
   1  -1   7  626.04   27.50
   1   1  -7  685.53   31.20
  -1  -1  -7  619.24   30.60
  -1  -1  -7  655.43   23.60
   1  -1  -7  677.73   33.20
  -1   1  -7  695.73   32.10
   1  -1  -7  658.63   32.90
  -1  -1   7  699.13   29.20
  -1   1  -7  690.33   34.50
  -1   1  -7  640.74   28.30
  -2  -1  -7  498.15   30.40
  -2   1   7  518.25   24.10
  -2  -1  -7  462.35   22.50
   2   1  -7  508.35   28.70
   2   1  -7  487.95   24.80
  -2   1  -7  497.15   26.00
   2  -1  -7  513.15   28.40
   2  -1  -7  542.15   29.50
  -2  -1   7  532.05   26.40
  -2   1  -7  467.45   29.60
  -3  -1  -7  823.42   38.20
   3   1  -7  831.22   41.70
   3   1  -7  855.91   35.30
  -3   1   7  844.62   39.10
  -3  -1  -7  892.01   45.00
  -3  -1  -7  840.02   35.10
   3  -1   7  857.71   40.50
  -3   1  -7  882.21   45.20
   3  -1  -7  862.71   40.10
  -3  -1   7  854.71   41.40
   3  -1  -7  867.41   42.20
   4  -1   7  178.68   21.30
   4   1  -7  159.88   19.40
  -4  -1  -7  170.58   19.00
  -4  -1  -7  217.48   28.00
  -4   1   7  165.48   21.70
  -4   1  -7  195.38   13.80
   4  -1  -7  194.78   20.60
  -4  -1   7  208.38   13.40
   4  -1  -7  228.18   20.50
   4   1   7  190.68   14.40
  -4  -1   7  173.38   13.20
  -4  -1   7  184.08   22.30
   5  -1   7  162.78   26.30
  -5  -1  -7  176.98   24.10
   5   1  -7  176.18   21.20
  -5   1   7  153.48   24.00
  -5  -1  -7  189.88   27.40
  -5   1   7  172.08   20.80
  -5  -1   7  233.38   26.20
  -5   1  -7  212.68   28.30
   5  -1  -7  190.98   22.60
  -6   1   7  103.19   26.20
  -6  -1  -7   87.39   23.50
   6   1  -7   82.59   17.40
  -6  -1  -7   70.39   22.70
  -6   1  -7  162.68   28.40
  -6  -1   7  116.89   27.90
  -6   1  -7  145.69   31.00
  -7   1   7   35.40   27.00
  -7  -1  -7   92.89   27.40
  -7  -1  -7   71.59   38.20
  -7   1  -7  113.99   30.60
  -7  -1   7   92.29   27.50
  -7   1  -7   98.29   28.00
   0   2  -7   25.50    9.80
   0  -2   7   19.60    7.60
   0   2  -7    7.60    8.50
   0  -2  -7   19.10    8.60
   0  -2  -7   17.70   10.00
   1  -2   7 1736.73   64.09
  -1  -2  -7 1739.13   69.19
  -1  -2  -7 1769.82   56.79
  -1   2   7 1741.83   57.49
   1   2  -7 1740.03   67.99
  -1  -2  -7 1720.13   65.89
   1   2  -7 1703.73   64.19
  -1   2   7 1703.73   57.59
  -1  -2  -7 1668.03   56.09
   1  -2  -7 1685.63   68.09
  -1   2  -7 1712.73   66.59
  -1   2  -7 1674.23   68.19
  -1  -2   7 1702.83   65.39
   1  -2  -7 1675.53   68.29
  -2  -2  -7  112.69   11.70
  -2  -2  -7  108.29   17.30
   2  -2   7  116.89   13.80
   2   2  -7  141.49   18.20
  -2  -2  -7  109.69   10.00
  -2   2   7   98.09   10.40
   2   2  -7  105.99   10.90
  -2   2  -7   68.49   16.30
  -2   2  -7   64.29   13.10
  -3  -2  -7  847.62   38.20
  -3   2   7  849.02   39.20
   3   2  -7  858.71   42.00
   3  -2   7  789.12   41.10
   3   2  -7  824.52   32.00
  -3  -2  -7  830.22   35.20
  -3  -2  -7  847.72   44.10
   3  -2  -7  813.12   41.60
  -3   2  -7  843.12   45.80
  -3  -2   7  875.51   42.70
   3  -2  -7  863.11   42.40
  -3   2  -7  841.12   37.60
  -4   2   7   -7.90   10.30
   4   2  -7    7.90   11.90
  -4  -2  -7  -10.40   10.90
   4  -2   7   20.70   13.20
  -4  -2  -7   -7.80    9.50
  -4   2  -7   -1.70   13.10
  -4  -2   7   -2.80   13.80
   4   2   7    7.00    4.30
   4  -2  -7   22.50   11.30
   4  -2  -7   23.50   13.40
  -4   2  -7   11.30   11.00
   5   2  -7  537.45   32.90
  -5  -2  -7  503.85   36.40
  -5  -2  -7  536.35   37.70
  -5   2   7  514.95   33.50
   5  -2   7  491.15   37.80
  -5   2   7  632.34   40.00
  -5  -2   7  531.95   40.80
   5  -2  -7  567.44   37.10
  -5   2  -7  517.25   23.90
  -5   2  -7  522.35   41.80
   6  -2   7  -12.10   20.70
  -6  -2  -7    8.10   16.70
  -6   2   7   17.00   18.80
  -6   2   7   33.50   15.10
   6   2  -7   17.80   14.50
  -6  -2  -7   28.90   18.40
  -6   2  -7   20.80   18.80
  -6   2  -7   -3.10   21.90
  -7  -2  -7  218.78   35.80
  -7   2   7  222.88   37.80
  -7  -2  -7  199.48   35.70
  -7   2  -7  237.78   40.90
  -7   2  -7  166.48   33.70
  -7  -2   7  229.38   40.10
   0  -3   7   15.60    8.60
   0   3  -7   12.10    9.30
   0  -3  -7   18.40    9.30
   0  -3  -7    7.90    8.30
   0   3  -7    3.70    8.70
   1  -3   7  128.29   16.40
   1   3  -7  108.09   13.40
  -1  -3  -7   93.19   14.40
  -1  -3  -7   81.69    6.40
  -1   3   7   84.99    7.80
  -1  -3  -7   82.59   15.40
  -1  -3  -7   90.39    7.70
   1   3  -7   89.29   15.80
   1  -3  -7  110.69    7.80
  -1  -3   7  115.39   16.90
  -1   3  -7  149.19   19.50
  -1   3  -7  130.79   15.60
   1  -3  -7  155.48   19.80
   1  -3  -7  107.69   17.20
   2   3  -7   56.89   14.00
  -2  -3  -7   82.29   12.90
  -2  -3  -7   95.89   17.00
   2   3  -7   61.99    8.80
   2  -3   7   62.59   13.90
   2  -3  -7   26.10   10.60
  -2   3  -7   35.30   14.40
  -2  -3   7   13.50   10.80
   2  -3  -7   39.50    8.10
  -2  -3   7   40.60    7.60
  -2   3  -7   32.10   12.00
   2  -3  -7   26.60   11.40
   3  -3   7   56.59   16.10
  -3   3   7   77.29   13.50
   3   3  -7   61.99   15.00
  -3  -3  -7   76.59   17.60
  -3  -3  -7   64.49   13.70
   3  -3  -7   60.69   16.40
   3  -3  -7   71.49   12.60
  -3   3  -7   94.49   15.50
   3   3   7   80.49   12.50
   3  -3  -7  102.69   18.10
  -3  -3   7   82.69   16.50
  -3   3  -7   63.99   19.40
  -4   3   7   -8.80    9.90
   4  -3   7   23.30   14.30
  -4  -3  -7   20.40   11.60
  -4  -3  -7   10.60   10.80
   4   3  -7    9.30   11.50
   4  -3  -7   14.40   14.20
   4  -3  -7   13.10   12.90
  -4   3  -7    9.50   15.30
   4   3   7   31.00    8.20
  -4   3  -7   27.20   11.30
   4   3   7   16.90    5.30
  -4  -3   7   23.30   15.80
  -5   3   7   59.09   18.60
   5   3  -7   83.59   17.40
  -5   3   7   61.39   18.20
  -5   3   7   69.59   16.00
  -5  -3  -7   89.59   20.70
  -5  -3  -7   77.59   20.20
   5  -3   7   96.29   24.80
  -5  -3   7   36.00   22.30
  -5   3  -7   53.19   22.90
  -6   3   7   20.00   16.10
  -6  -3  -7   24.60   17.80
   6   3  -7   29.80   24.60
  -6   3   7  -16.20   18.10
  -6   3   7   36.60   21.90
  -6  -3  -7   33.10   20.00
   6  -3   7  -19.00   20.60
  -6  -3   7   56.09   24.70
  -6   3  -7   19.00   36.50
  -7   3   7    3.80   25.20
  -7  -3  -7   45.70   24.80
  -7   3  -7    7.00   22.60
  -7  -3   7   22.30   25.80
  -7   3  -7  -23.60   26.50
   0   4  -7 1035.70   47.30
   0  -4  -7 1041.10   48.30
   0  -4  -7  983.90   35.40
   0  -4  -7  940.71   45.30
   0  -4   7 1000.50   46.80
   0   4   7  932.31   35.70
   0   4  -7  997.70   44.40
  -1  -4  -7  669.13   27.80
  -1  -4  -7  628.74   36.40
   1   4  -7  638.04   35.90
   1   4  -7  676.83   35.20
  -1  -4  -7  703.63   34.70
   1  -4   7  634.04   35.90
  -1   4   7  651.73   28.30
   1  -4  -7  670.83   38.20
   1  -4  -7  665.13   27.50
  -1   4  -7  715.33   37.00
   1  -4  -7  706.73   37.20
  -1   4  -7  670.23   37.00
  -1  -4   7  716.23   37.90
   2   4  -7  873.21   35.00
   2  -4   7  896.71   44.00
  -2  -4  -7  883.21   44.30
  -2  -4  -7  900.61   40.00
  -2  -4  -7  888.41   36.90
   2   4  -7  883.01   44.30
   2  -4  -7  860.51   45.80
   2  -4  -7  848.32   45.20
  -2   4  -7  851.21   45.20
   2   4   7  852.51   38.90
  -2   4  -7  808.32   42.00
  -2  -4   7  814.72   44.00
   2  -4  -7  861.21   44.30
  -2  -4   7  797.32   34.90
   3  -4   7  558.54   35.20
   3   4  -7  488.45   32.00
  -3  -4  -7  506.45   33.30
  -3  -4  -7  499.25   28.60
   3  -4  -7  472.75   28.20
   3   4   7  510.25   26.50
  -3   4  -7  542.55   38.40
   3  -4  -7  515.95   33.20
  -3  -4   7  521.95   35.50
   3  -4  -7  459.65   34.30
  -3   4  -7  492.95   30.40
   4   4  -7  477.05   33.20
   4  -4   7  540.15   39.00
  -4  -4  -7  429.76   36.10
  -4  -4  -7  458.35   31.80
  -4   4   7  463.35   33.00
   4   4   7  534.55   24.00
  -4   4  -7  550.54   41.50
   4  -4  -7  594.74   39.30
  -4  -4   7  555.34   40.60
   4  -4  -7  543.75   36.20
  -4   4  -7  545.75   32.10
   4  -4  -7  537.35   33.80
   5   4  -7  356.86   34.90
   5  -4   7  298.07   35.10
  -5  -4  -7  332.27   30.50
  -5   4   7  318.07   31.40
  -5   4   7  381.66   32.60
  -5  -4  -7  324.37   29.20
  -5   4   7  297.07   27.80
  -5  -4   7  309.87   36.00
  -5   4  -7  319.97   23.80
  -5   4  -7  322.67   41.10
  -6  -4  -7  137.69   23.40
  -6   4   7  164.68   46.80
  -6  -4  -7  106.89   29.10
  -6   4   7  117.69   23.10
   6  -4   7  137.39   32.00
  -6   4   7  104.69   27.00
  -6  -4   7  204.48   37.70
  -6   4  -7  200.88   37.70
  -7   4   7   63.79   30.80
  -7  -4  -7  111.69   29.80
   7  -4   7   97.09   45.50
  -7   4  -7   23.40   30.70
   0  -5   7  131.19   21.50
   0  -5  -7  151.08   12.10
   0   5  -7  167.48   18.90
   0  -5  -7  183.68   23.20
   0  -5  -7  156.18   19.40
   0   5  -7  168.78   20.40
   1  -5   7   19.00   13.50
   1   5  -7    4.70   12.10
   1   5  -7   17.80    9.20
  -1  -5  -7    4.20    7.10
  -1  -5  -7   10.20   10.50
   1  -5  -7   17.90    7.10
  -1  -5   7   22.90   13.80
   1  -5  -7   15.10   12.90
  -1   5  -7   22.50   13.70
  -1   5  -7   -2.50   10.00
   1  -5  -7   13.10   10.50
   1   5   7    9.60    9.90
  -2  -5  -7   57.69   14.90
   2   5  -7   49.60    9.10
   2  -5   7   54.39   15.40
  -2  -5  -7   44.40   11.70
   2   5  -7   48.90   16.10
  -2  -5   7   41.50   16.50
  -2   5  -7   28.30   13.30
  -2   5  -7   42.10   17.10
   2   5   7   38.90   11.80
   2  -5  -7   29.70   15.50
   2  -5  -7   44.40   10.60
   2  -5  -7   32.80   16.00
  -3  -5  -7   31.70   10.90
   3  -5   7    9.20   14.40
  -3   5   7   31.40   15.30
   3   5  -7    9.70   13.20
  -3  -5  -7   18.90   12.20
  -3  -5   7   12.80   15.40
   3  -5  -7   42.90   18.10
  -3   5  -7   14.90   11.80
  -3   5  -7   22.30   15.60
   3  -5  -7   26.80   10.10
   3   5   7    5.90    8.70
   4  -5   7   29.00   18.10
  -4  -5  -7   17.70   14.50
  -4  -5  -7   42.20   16.10
   4   5  -7   51.89   17.60
  -4   5   7   38.00   16.40
   4   5   7   65.89   11.10
   4  -5  -7   48.60   14.90
   4  -5  -7   58.29   20.70
  -4   5  -7   74.49   18.10
  -4  -5   7   75.39   22.70
  -4   5  -7  100.19   26.50
  -5  -5  -7   -5.10   15.60
   5   5  -7    7.20   16.30
  -5   5   7   36.40   19.90
  -5   5   7   23.90   16.50
   5  -5   7   24.60   22.80
  -5  -5  -7   13.30   13.20
  -5   5   7   10.80   21.20
  -5   5  -7   43.10   16.00
  -5  -5   7    5.90   22.20
  -5   5  -7   13.30   25.30
   5  -5  -7   34.00   17.60
  -6   5   7   26.80   39.60
  -6   5   7   29.20   19.80
  -6  -5  -7   24.20   15.60
   6  -5   7   39.50   25.90
  -6   5   7   18.00   24.20
  -6  -5  -7  -11.40   19.40
  -6   5  -7   15.40   26.20
  -6  -5   7   53.59   28.90
   0   6  -7  156.68   21.00
   0   6   7  140.29   21.10
   0  -6  -7  143.69   17.40
   0   6  -7  116.59   32.10
   0  -6   7  137.39   25.00
  -1  -6  -7   17.50   14.50
   1  -6   7   27.60   16.90
  -1   6   7   43.10   14.80
   1   6  -7   46.80   16.60
  -1  -6  -7   32.30   10.70
   1   6  -7   43.20   11.60
  -1   6  -7   26.60   16.40
   1   6   7   39.40   13.50
  -1  -6   7   25.50   16.70
   1  -6  -7   29.60    9.30
  -1   6  -7   24.90   14.90
   1  -6  -7    5.90   13.90
   2   6  -7   96.29   20.50
  -2  -6  -7  127.79   32.80
  -2   6   7   91.39   20.30
   2  -6   7   89.09   21.80
   2   6  -7   92.59   12.00
  -2  -6  -7  123.39   16.90
  -2   6  -7   62.29   17.80
   2   6   7   89.29   17.10
  -2  -6   7   49.50   18.60
   2  -6  -7   83.49   14.50
  -2   6  -7   71.49   19.70
   2  -6  -7   98.29   22.40
  -3  -6  -7   45.60   14.50
  -3   6   7   40.90   15.80
   3  -6   7   43.10   20.90
   3   6  -7   27.30   15.10
  -3  -6  -7   47.60   16.10
  -3  -6   7   22.80   19.60
   3  -6  -7   58.59   22.50
   3  -6  -7   35.40   13.70
   3   6   7   40.30   12.60
  -3   6  -7   29.80   15.30
  -3   6  -7   44.60   19.30
   4  -6   7   38.80   22.20
   4   6  -7   69.59   18.60
  -4  -6  -7   95.49   20.00
  -4  -6  -7   53.29   17.80
  -4   6   7   50.09   20.20
  -4   6  -7   46.80   17.60
   4  -6  -7   17.60   15.40
  -4   6  -7   17.70   23.10
   4   6   7   45.60   11.40
   4  -6  -7   67.39   23.60
  -4  -6   7   24.60   21.60
  -5  -6  -7    8.90   15.00
  -5   6   7   80.49   22.00
   5   6  -7   84.79   22.20
  -5   6   7   59.79   25.60
  -5  -6  -7   33.20   18.50
   5  -6   7   31.70   24.70
  -5   6  -7   36.50   27.50
  -5   6  -7   53.49   19.70
   5  -6  -7   41.60   21.20
  -5  -6   7   27.70   24.10
   6  -6   7   20.70   28.60
  -6  -6  -7   63.49   23.40
  -6   6   7   15.90   27.20
  -6   6   7   30.90   21.00
  -6   6   7   36.10   26.70
  -6  -6   7   64.89   31.90
  -6   6  -7   22.10   29.50
   0  -7  -7  340.87   23.00
   0  -7   7  317.47   32.40
   0   7  -7  327.17   28.70
   0  -7  -7  288.17   30.20
   0   7   7  337.57   29.20
   0   7  -7  348.57   31.80
  -1  -7  -7   46.60   13.30
   1   7  -7   39.80   17.70
  -1   7   7   50.29   17.30
  -1  -7  -7   29.80   14.50
   1   7  -7   23.70   13.10
   1  -7   7   24.20   17.60
  -1   7  -7   51.89   19.10
   1   7   7   44.90   14.90
  -1  -7   7   11.80   16.70
  -1   7  -7   46.60   17.00
   1  -7  -7   21.90   17.30
   1  -7  -7   35.10   11.40
  -2   7   7  402.46   33.70
   2  -7   7  472.15   39.50
  -2  -7  -7  423.76   32.90
  -2  -7  -7  462.55   30.30
   2   7  -7  418.76   34.50
  -2  -7   7  446.66   38.90
   2   7   7  378.76   29.90
   2  -7  -7  407.66   38.40
  -2   7  -7  442.86   37.40
  -2   7  -7  409.96   34.30
   2  -7  -7  396.16   27.90
   3   7  -7  269.47   29.70
  -3  -7  -7  214.08   23.60
   3  -7   7  228.78   36.00
  -3  -7  -7  246.48   26.80
  -3   7   7  262.77   29.20
   3  -7  -7  238.78   36.90
   3   7   7  201.68   24.70
  -3  -7   7  173.58   30.90
  -3   7  -7  173.78   26.50
  -3   7  -7  206.78   34.40
  -4   7   7  261.27   31.50
   4  -7   7  234.68   37.50
   4   7  -7  273.47   32.90
  -4   7   7  301.67   41.70
  -4  -7  -7  268.57   27.40
  -4  -7  -7  227.58   27.50
  -4  -7   7  214.28   46.70
   4  -7  -7  206.68   36.40
  -4   7  -7  187.98   29.70
   4   7   7  191.08   20.70
   4  -7  -7  235.38   27.20
  -5  -7  -7   75.79   23.40
   5   7  -7   62.19   22.70
  -5   7   7   69.19   22.80
   5  -7   7   93.29   31.40
  -5   7   7  110.69   30.00
  -5  -7  -7   83.09   20.10
  -5   7  -7  115.79   26.80
  -5  -7   7   48.00   28.10
   5  -7  -7   83.89   38.10
  -5   7  -7   62.59   29.90
  -6   7   7   88.29   28.30
  -6  -7  -7   44.70   25.10
  -6   7   7   90.39   30.90
  -6   7   7   29.50   23.90
   0   8   7   29.00   16.10
   0   8  -7   49.20   19.20
   0   8  -7   46.30   21.70
   0  -8  -7   48.60   12.90
   0  -8  -7   46.70   17.60
   0  -8   7   43.90   21.60
   1  -8   7  130.59   30.20
   1   8  -7  114.39   25.40
  -1   8   7  159.78   26.40
  -1  -8  -7  120.69   23.90
   1   8  -7  117.69   19.20
  -1  -8  -7  156.08   20.30
  -1   8  -7  143.49   26.90
  -1  -8   7  106.49   26.70
   1  -8  -7  165.98   19.60
   1   8   7  130.59   22.90
   1  -8  -7  160.98   31.40
  -1   8  -7  186.98   28.40
  -2   8   7   65.79   20.50
  -2  -8  -7   76.99   20.00
   2  -8   7   81.79   27.80
  -2  -8  -7   60.49   15.80
   2   8  -7   31.80   20.50
   2   8  -7   55.59   12.90
  -2   8  -7   21.90   21.00
   2  -8  -7   25.30   14.10
   2  -8  -7   33.10   23.50
  -2  -8   7   -4.10   21.80
  -2   8  -7   26.40   21.30
   2   8   7   21.50   13.30
  -3  -8  -7  191.48   26.10
  -3   8   7  176.48   30.20
   3   8  -7  177.48   28.00
  -3  -8  -7  218.68   26.70
   3  -8   7  154.98   30.80
  -3   8  -7  217.08   31.80
   3  -8  -7  211.18   36.90
  -3  -8   7  212.58   37.20
   3   8   7  204.08   22.60
  -3   8  -7  193.98   33.10
   3  -8  -7  208.58   26.20
  -4   8   7   27.70   27.10
   4   8  -7   15.50   20.60
   4  -8   7   53.59   26.50
  -4  -8  -7   23.80   18.10
  -4  -8  -7   60.39   22.20
  -4   8   7   32.60   21.40
  -4   8  -7   15.00   21.50
  -4   8  -7   80.59   30.70
   4   8   7    2.50   15.40
   4  -8  -7    0.50   19.20
  -4  -8   7    2.30   23.60
  -5   8   7   49.20   28.20
  -5  -8  -7   62.59   24.60
   5  -8   7   15.60   29.50
  -5   8   7   52.19   24.40
  -5  -8   7   61.49   28.90
   5  -8  -7   89.99   26.10
  -5   8  -7   70.39   25.80
  -5   8  -7   38.70   32.00
   0   9   7   14.30   17.20
   0  -9  -7   42.20   23.90
   0  -9   7   70.29   26.60
   0   9  -7   21.30   22.10
   0   9  -7   57.79   20.60
   1   9  -7  340.67   38.70
  -1  -9  -7  348.07   29.80
  -1   9   7  337.47   36.30
   1   9  -7  283.87   34.00
  -1  -9  -7  385.26   37.50
   1  -9   7  307.27   44.50
   1  -9  -7  419.06   30.00
   1  -9  -7  380.06   41.70
   1   9   7  375.36   34.30
  -1  -9   7  348.17   44.70
  -1   9  -7  371.96   38.50
  -1   9  -7  386.96   39.90
  -2  -9  -7   19.50   14.70
   2   9  -7   23.10   21.00
  -2   9   7    1.70   21.20
  -2  -9  -7   16.80   18.80
  -2   9  -7   72.29   26.80
   2   9   7   18.40   16.50
   2  -9  -7   15.90   38.30
  -2   9  -7    2.20   21.30
   2  -9  -7   21.20   15.10
  -3   9   7  286.27   35.30
   3  -9   7  245.08   39.80
  -3  -9  -7  249.28   30.00
   3   9  -7  294.17   50.59
  -3  -9  -7  316.37   32.80
   3  -9  -7  293.97   42.80
  -3   9  -7  248.68   39.00
   3   9   7  255.77   30.30
   3  -9  -7  276.17   33.70
  -3   9  -7  308.67   36.60
  -3  -9   7  213.78   41.60
  -4  -9  -7   10.50   18.80
  -4  -9  -7   15.00   26.30
   4   9  -7   25.40   25.40
  -4   9   7   47.40   21.70
   4  -9   7   -7.30   25.10
  -4   9   7   44.40   30.70
  -4   9  -7    1.80   23.70
   4  -9  -7   24.00   26.20
  -4   9  -7  -12.40   23.60
  -4  -9   7   -2.50   27.80
   0  10  -7   27.70   21.70
   0  10  -7   23.20   22.80
   0  10   7  -13.70   16.20
   0 -10  -7   15.90   17.30
   0 -10  -7   10.80   21.90
   0 -10   7    7.10   27.00
   1  10  -7  156.98   27.20
   1 -10   7  231.68   42.40
  -1  10   7  171.08   31.20
  -1 -10  -7  160.28   24.30
   1  10  -7  121.89   30.10
  -1  10  -7  136.49   29.10
  -1 -10   7  141.79   37.30
  -1  10  -7  181.58   33.10
   1 -10  -7  222.58   26.40
   1 -10  -7  103.89   29.40
   1  10   7  130.79   27.90
   2 -10   7  -14.20   26.20
   2  10  -7   24.90   22.30
  -2 -10  -7    3.80   18.20
  -2  10   7   17.70   21.70
  -2  10  -7   45.50   26.00
  -2 -10   7   -8.50   27.10
   2 -10  -7   29.50   24.50
   2  10   7    5.20   16.50
   2 -10  -7   53.79   20.60
  -2  10  -7   42.80   26.10
  -3 -10  -7   82.49   27.10
  -3  10   7  148.99   30.90
  -3 -10  -7  215.78   30.80
  -3  10   7  182.28   39.40
   3  10  -7  119.29   31.10
   3 -10   7  117.79   37.80
  -3 -10   7  100.89   35.70
  -3  10  -7  167.38   35.50
  -3  10  -7  148.09   32.40
   3  10   7  155.88   27.60
   4  10  -7   17.70   29.20
   4 -10   7  -20.30   46.40
  -4  10   7   28.30   57.79
  -4  10   7   46.50   34.10
  -4 -10  -7   68.89   29.60
  -4  10  -7   76.19   29.80
   4 -10  -7   66.89   27.70
   0 -11   7  105.79   32.80
   0 -11  -7   51.89   23.00
   0 -11  -7   49.90   26.30
   0  11  -7  115.19   33.30
   0  11   7   89.89   26.50
   1 -11   7  103.69   32.20
  -1 -11  -7   42.00   24.50
   1  11  -7   50.49   30.10
  -1  11   7   98.59   27.50
  -1 -11  -7   67.59   24.10
  -1 -11   7   34.10   27.50
  -1  11  -7   50.39   28.20
   1 -11  -7   71.89   30.20
   1 -11  -7   36.00   22.20
  -1  11  -7   20.90   28.80
   1  11   7   44.30   24.70
   2  11  -7   16.20   26.20
  -2 -11  -7   11.20   41.00
  -2  11   7  -26.80   26.10
  -2 -11  -7  -31.80   21.40
  -2  11   7   28.80   24.90
   2 -11   7   -5.20   29.30
  -2  11  -7   25.10   29.20
   2 -11  -7   47.50   23.60
  -2 -11   7  -21.80   25.70
   2 -11  -7   -8.10   28.40
  -2  11  -7   12.30   29.70
   2  11   7  -13.10   19.10
  -3  11   7   25.50   26.90
   3  11  -7   -3.60   24.20
  -3  11   7  -11.90   31.00
   3 -11   7   57.19   34.90
   3 -11  -7  -25.10   28.80
  -3 -11   7   36.90   31.30
  -3  11  -7  -36.90   49.20
   3  11   7  -19.00   22.70
   0  12   7   56.79   35.50
   0 -12   7  124.69   37.70
   0  12  -7   55.89   37.70
   0  12  -7   47.00   32.50
   0   0  -8 1415.76   56.79
   0   0   8 1354.86   45.70
   0   0  -8 1325.27   56.59
   0   0  -8 1350.56   45.50
   1   0  -8   38.80   10.40
  -1   0  -8   45.30   10.50
   1   0   8   50.19    6.50
  -1   0  -8   49.90    8.40
  -1   0   8   44.50    6.80
  -1   0  -8   32.00   11.10
  -1   0   8   40.20    5.90
   1   0  -8   55.29   12.60
   2   0  -8 1169.48   50.49
   2   0   8 1263.97   46.90
  -2   0  -8 1214.68   49.99
  -2   0   8 1169.28   47.50
   2   0  -8 1204.68   53.69
  -2   0  -8 1216.98   56.09
  -3   0  -8   -7.10   10.50
  -3   0   8   -3.60    6.80
   3   0  -8   -5.40    9.40
   3   0   8    6.40    9.30
  -3   0  -8    5.10    8.10
   3   0  -8    1.40    9.00
  -4   0   8  519.15   33.00
  -4   0  -8  460.85   30.60
   4   0  -8  505.45   28.30
  -4   0  -8  513.25   24.40
  -4   0  -8  610.34   40.00
   4   0  -8  483.45   32.60
  -5   0   8   -9.10    9.40
  -5   0  -8    1.70   12.70
  -5   0   8  -15.60   13.90
  -5   0  -8    2.00   15.60
  -6   0  -8  160.28   32.10
  -6   0  -8  180.78   28.80
   6   0  -8  144.19   21.20
  -6   0   8  186.18   32.20
  -7   0   8   64.49   26.10
  -7   0  -8   -1.50   24.80
  -7   0  -8   59.49   28.20
   0  -1  -8  270.77   20.40
   0   1  -8  278.17   20.90
   0  -1  -8  271.47   20.90
   0   1  -8  251.07   20.00
   0  -1   8  264.77   14.90
   0   1  -8  255.67   14.40
  -1  -1  -8  150.88   15.20
  -1   1   8  141.99    7.80
  -1  -1  -8  154.78    7.00
  -1  -1  -8  163.58   18.10
   1   1  -8  169.28   17.60
   1   1  -8  134.19   14.60
   1  -1   8  142.39   11.50
  -1   1   8  135.49    8.30
   1  -1  -8  150.78   18.90
  -1   1  -8  134.59   15.00
  -1   1  -8  163.28   20.80
  -1  -1   8  135.59   12.70
   1  -1  -8  131.99   15.80
  -2   1   8  210.08   14.20
   2   1  -8  194.48   20.30
  -2  -1  -8  187.38   21.20
  -2  -1  -8  209.68   13.30
   2   1  -8  203.58   18.30
   2  -1   8  226.88   18.20
  -2  -1  -8  200.68   16.60
   3   1  -8   88.49   12.50
   3  -1   8   97.89   15.10
  -3  -1  -8   91.09   14.20
  -3   1   8   89.29   14.70
   3   1  -8   97.09   17.10
  -3  -1  -8  103.89   21.50
  -3  -1  -8  129.69   15.20
   3  -1  -8   98.49   17.90
  -3   1  -8  101.19   19.80
   3  -1  -8   84.59   15.00
  -3   1  -8   90.49   13.90
  -3  -1   8   90.19   14.70
  -4  -1  -8  137.29   19.20
   4  -1   8  172.88   22.10
  -4  -1  -8  109.09   10.80
  -4  -1  -8  178.48   27.00
   4   1  -8  109.89   19.20
  -4   1   8  109.79   18.50
   4  -1  -8  146.39   21.30
  -4   1  -8  171.68   26.40
  -4  -1   8  175.18   23.50
   4  -1  -8  131.59   19.30
   5   1  -8   46.80   18.90
   5  -1   8   32.10   17.90
  -5  -1  -8   62.09   19.40
  -5   1   8   28.40   16.20
  -5   1   8   49.90   14.00
  -5  -1  -8   44.40   15.40
  -5  -1   8   -8.90   14.30
   5  -1  -8   43.00   16.80
  -5   1  -8   40.20   21.30
  -6  -1  -8   37.60   21.40
   6   1  -8   58.79   17.10
  -6  -1  -8   51.29   23.30
  -6   1   8   55.19   24.90
  -6   1  -8  106.69   25.30
  -6  -1   8   92.49   34.60
  -6   1  -8   97.69   29.60
   6  -1  -8   87.49   19.80
  -7  -1  -8   64.99   26.70
  -7   1   8   24.80   27.60
  -7  -1  -8    5.40   23.30
  -7  -1   8    5.00   26.40
  -7   1  -8   17.10   24.50
  -7   1  -8   51.99   29.10
   0  -2  -8  285.17   23.10
   0   2  -8  290.47   21.10
   0  -2   8  290.77   18.40
   0   2  -8  288.07   21.40
   0  -2  -8  308.57   22.20
  -1  -2  -8   66.59   12.60
  -1  -2  -8   75.09   15.90
   1   2  -8   55.19   11.10
   1  -2   8   48.80   11.10
  -1   2   8   51.69    4.40
   1   2  -8   73.69   15.10
  -1   2  -8   97.89   16.70
   1  -2  -8  115.49   17.10
   1  -2  -8   94.89   15.00
   2   2  -8  136.99   13.60
  -2  -2  -8  140.39   11.20
  -2  -2  -8  164.78   11.60
   2  -2   8  175.28   16.80
  -2   2   8  146.49   12.50
  -2  -2  -8  183.38   24.50
   2   2  -8  170.78   22.10
  -2  -2  -8  153.58   14.80
  -2   2  -8  189.18   20.80
  -2  -2   8  143.19   16.20
  -2   2  -8  170.18   17.20
   2  -2  -8  151.08   18.30
   2  -2  -8  188.98   19.80
   3  -2   8   83.19   16.20
  -3  -2  -8   71.19   12.00
  -3   2   8   74.09   13.40
   3   2  -8   69.59   16.20
  -3  -2  -8   82.29   19.30
  -3  -2  -8   99.09   13.80
   3   2  -8   73.89   10.10
  -3   2  -8   77.39   20.00
  -3   2  -8  114.79   16.30
  -3  -2   8  118.19   17.80
   3  -2  -8  120.29   19.10
   3  -2  -8  120.59   19.60
   4  -2   8  179.38   36.40
   4   2  -8  198.98   24.40
  -4  -2  -8  204.88   28.30
  -4   2   8  201.88   20.60
  -4  -2  -8  192.08   19.70
   4  -2  -8  156.68   33.20
  -4  -2   8  134.89   24.40
   4  -2  -8  129.59   20.20
  -4   2  -8  158.38   16.70
   4   2   8  155.08   11.40
  -4   2  -8  157.18   26.90
  -5  -2  -8   -2.00   14.50
  -5  -2  -8   13.10   14.80
  -5   2   8    1.90   14.70
   5  -2   8   -4.50   16.90
  -5   2   8   27.90   16.00
   5   2  -8   37.90   28.70
  -5   2  -8   43.20   23.10
  -5  -2   8    6.60   16.40
   5  -2  -8   34.30   15.10
  -6  -2  -8  156.28   27.80
   6   2  -8  114.49   21.10
  -6   2   8  135.29   31.40
  -6   2   8  114.79   23.50
  -6  -2  -8   83.99   24.00
  -6   2   8  100.49   22.40
  -6  -2   8   90.59   26.10
  -6   2  -8  147.39   52.69
  -7  -2  -8   21.00   21.80
  -7  -2  -8   33.60   24.60
  -7   2   8   66.39   30.50
  -7   2  -8   93.69   31.40
  -7  -2   8   58.89   28.10
  -7   2  -8   45.00   25.50
   0   3  -8  889.51   41.70
   0  -3  -8  823.32   43.20
   0  -3   8  877.81   40.60
   0   3  -8  879.81   43.20
   0  -3  -8  854.21   42.00
  -1  -3  -8 1557.24   62.29
   1   3  -8 1486.25   64.39
  -1  -3  -8 1486.15   65.49
   1   3  -8 1538.75   60.59
  -1   3   8 1475.35   51.19
  -1   3   8 1534.05   50.89
   1  -3   8 1485.65   60.89
   1  -3  -8 1626.54   65.69
   1  -3  -8 1588.24   66.69
  -1   3  -8 1520.45   65.09
  -1  -3   8 1563.34   62.79
  -1   3  -8 1532.95   63.89
   2   3  -8  221.48   21.90
  -2  -3  -8  207.48   21.10
   2   3  -8  209.88   15.90
  -2  -3  -8  193.58   13.90
   2  -3   8  212.58   19.20
  -2  -3  -8  183.38   16.80
  -2   3   8  207.18   14.40
  -2   3  -8  202.28   20.50
   2  -3  -8  227.28   21.30
  -2   3  -8  186.98   23.60
  -2  -3   8  217.18   20.40
   2  -3  -8  247.98   22.60
  -3   3   8  747.83   35.60
  -3  -3  -8  725.73   33.30
  -3  -3  -8  671.83   33.30
  -3  -3  -8  705.33   41.20
   3  -3   8  729.73   40.00
   3   3  -8  656.73   38.50
   3  -3  -8  660.93   40.20
  -3   3  -8  656.83   35.80
   3  -3  -8  692.13   40.10
  -3   3  -8  671.13   42.70
  -3  -3   8  690.43   41.00
   4   3  -8  111.29   20.60
  -4  -3  -8   74.09   19.40
   4  -3   8  126.39   22.50
  -4   3   8  126.09   19.20
  -4  -3  -8  110.49   18.20
  -4  -3   8   83.09   20.60
  -4   3  -8   81.69   15.90
  -4   3  -8   42.30   19.10
   4   3   8   73.89    9.90
   4  -3  -8   76.99   19.00
   4  -3  -8  143.09   23.40
  -5   3   8  427.26   33.80
  -5   3   8  424.46   34.20
  -5  -3  -8  425.36   34.90
   5   3  -8  404.86   31.30
  -5  -3  -8  412.56   33.10
   5  -3   8  453.65   38.10
   5  -3  -8  411.56   32.80
  -5   3  -8  438.86   42.40
  -5   3  -8  398.46   24.50
  -5  -3   8  405.16   40.20
   6   3  -8  160.98   27.20
  -6   3   8  143.39   25.80
   6  -3   8  181.98   32.10
  -6  -3  -8  111.79   27.10
  -6   3   8  178.78   25.90
  -6  -3  -8  197.58   29.50
  -6   3  -8  185.08   35.90
  -6  -3   8  171.58   34.40
  -7   3   8  148.39   32.90
  -7  -3  -8  184.08   35.60
  -7   3  -8  169.98   36.60
  -7  -3   8  136.39   51.19
  -7   3  -8  133.69   33.50
   0  -4   8  208.38   21.20
   0   4  -8  225.18   20.80
   0   4  -8  246.88   23.20
   0  -4  -8  231.68   21.60
   0  -4  -8  237.18   23.50
   1   4  -8  287.87   25.30
  -1  -4  -8  310.67   14.00
   1   4  -8  268.97   20.30
   1  -4   8  310.47   24.20
  -1  -4  -8  294.87   13.20
  -1  -4  -8  278.17   24.20
  -1  -4  -8  289.57   22.30
   1  -4  -8  247.18   25.30
  -1  -4   8  297.97   24.50
   1  -4  -8  251.37   23.60
  -1   4  -8  252.87   23.30
  -1   4  -8  271.57   25.40
   1  -4  -8  280.77   14.10
   2  -4   8   66.59   16.70
   2   4  -8   68.49   11.20
  -2  -4  -8   75.89   14.00
  -2  -4  -8   91.79   17.90
  -2  -4  -8   88.09   11.30
   2   4  -8   76.59   17.20
  -2  -4   8   74.69   18.30
   2  -4  -8   86.79   11.40
   2  -4  -8   61.29   16.00
  -2   4  -8   86.19   19.20
  -2   4  -8   64.69   16.10
   2  -4  -8   80.29   17.40
  -3  -4  -8  217.58   41.90
   3   4  -8  143.19   22.50
   3  -4   8  189.58   26.50
  -3  -4  -8  187.08   17.30
   3   4   8  140.39   15.20
  -3   4  -8  150.78   21.40
   3  -4  -8  149.39   24.30
   3  -4  -8  129.39   15.80
  -3   4  -8  119.09   22.70
   4  -4   8   64.59   20.80
  -4   4   8   57.29   15.70
  -4  -4  -8   56.29   15.30
   4   4  -8   34.10   16.60
  -4  -4  -8   53.59   17.10
   4  -4  -8   74.19   19.80
  -4   4  -8   96.49   18.70
  -4   4  -8   66.29   23.50
   4  -4  -8   53.19   19.30
  -4  -4   8   79.79   21.60
   5   4  -8  103.89   21.00
  -5  -4  -8  137.19   24.30
  -5   4   8  113.99   21.80
  -5   4   8  105.49   23.20
  -5  -4  -8   99.09   21.80
   5  -4   8   98.19   28.20
  -5   4   8   89.89   23.50
  -5   4  -8   71.09   24.50
  -5  -4   8   89.49   25.70
  -5   4  -8  100.29   17.60
   6  -4   8   49.90   25.10
  -6  -4  -8  101.09   24.30
  -6   4   8   71.19   22.20
  -6   4   8   81.09   26.30
  -6   4   8   49.99   23.50
  -6   4  -8   85.59   31.50
  -6  -4   8   91.89   30.40
   0   5  -8   44.60   16.50
   0   5  -8   62.99   15.40
   0  -5  -8   62.99    7.90
   0  -5  -8   85.59   18.70
   0  -5  -8   45.80   14.20
   0  -5   8   75.29   17.90
   0   5   8   43.40    7.00
   1   5  -8 1503.05   69.29
   1  -5   8 1506.65   66.39
  -1  -5  -8 1480.95   67.49
   1   5  -8 1487.25   59.99
  -1  -5  -8 1470.85   53.19
  -1  -5  -8 1367.66   62.19
  -1   5  -8 1446.06   65.39
   1  -5  -8 1454.75   53.29
  -1   5  -8 1454.95   65.59
  -1  -5   8 1398.66   66.09
   1  -5  -8 1306.67   86.29
   2   5  -8   16.30    8.20
   2   5  -8   -1.30   13.70
  -2  -5  -8   26.70   15.40
   2  -5   8   11.40   14.10
  -2   5  -8   12.50   13.10
   2  -5  -8   12.60    8.10
   2  -5  -8    4.50   12.40
   2   5   8    4.30    9.50
   2  -5  -8    5.70   16.00
  -2  -5   8    7.70   13.90
  -2   5  -8   17.70   17.60
  -3  -5  -8 1172.08   54.29
   3  -5   8 1337.37   64.59
  -3  -5  -8 1359.46   63.49
   3   5  -8 1328.77   63.39
  -3   5   8 1298.57   62.29
  -3  -5   8 1328.07   66.99
  -3   5  -8 1297.57   67.89
   3  -5  -8 1282.47   55.49
  -3   5  -8 1362.16   67.79
   3  -5  -8 1363.06   64.39
   3   5   8 1292.87   55.39
  -4  -5  -8   -0.70   13.40
   4  -5   8   16.70   17.70
   4   5  -8   19.40   15.10
  -4  -5  -8    5.20   12.80
  -4   5   8   -3.30   11.50
  -4   5  -8   27.90   26.30
   4  -5  -8   49.99   23.20
   4   5   8   23.40    9.20
   4  -5  -8   22.30   13.70
  -4  -5   8   54.69   23.10
  -4   5  -8   31.80   21.10
   5  -5   8  549.15   57.09
  -5   5   8  565.34   46.10
  -5  -5  -8  518.55   39.30
  -5  -5  -8  571.84   39.70
  -5   5   8  607.54   42.10
   5   5  -8  553.74   39.20
  -5   5   8  513.55   39.40
  -5   5  -8  598.34   50.79
  -6   5   8   40.20   25.00
   6  -5   8   15.20   23.20
  -6   5   8    0.20   21.10
  -6  -5  -8   -1.90   17.70
  -6  -5  -8   -7.00   18.10
  -6   5   8   -6.20   24.00
  -6   5  -8   42.70   29.30
  -6  -5   8    0.00   26.70
   0   6  -8   -4.40   13.00
   0  -6  -8    6.60    6.90
   0   6  -8   -0.50   10.90
   0  -6   8  -10.20   19.60
   0  -6  -8    6.00   13.10
   0   6   8   18.30   13.50
   1  -6   8   40.40   18.80
   1   6  -8   25.20   12.80
  -1   6   8   38.40   16.40
   1   6  -8   33.30   16.90
  -1  -6  -8   48.20   17.50
  -1   6  -8   47.70   17.70
   1  -6  -8   68.49   13.70
  -1  -6   8   28.70   16.70
   1  -6  -8   53.89   19.00
  -2  -6  -8   38.40   16.60
   2   6  -8   36.80   14.60
  -2  -6  -8   14.70    9.60
  -2   6   8   30.30   15.40
   2  -6   8   13.50   16.00
   2   6  -8   28.20   16.10
  -2   6  -8   38.00   19.30
  -2  -6   8   42.20   19.50
   2  -6  -8   40.60   11.00
   2   6   8   35.60   13.70
   2  -6  -8   34.70   16.20
  -2   6  -8   35.30   15.70
  -3  -6  -8  -11.70    9.50
  -3  -6  -8   -1.00   13.60
  -3   6   8    0.40   13.40
   3   6  -8   12.80   15.60
   3  -6   8   -0.40   16.40
  -3   6  -8   16.90   16.10
   3   6   8   14.40   11.10
  -3  -6   8  -11.60   16.20
  -3   6  -8  -12.60   20.70
   3  -6  -8    9.90   11.50
   3  -6  -8    1.10   16.50
  -4   6   8   31.60   18.10
  -4  -6  -8   32.60   16.00
   4   6  -8   46.90   19.80
   4  -6   8   -8.10   21.50
  -4  -6  -8   23.30   14.50
  -4  -6   8   29.40   23.30
   4   6   8   29.90   11.80
  -4   6  -8   38.30   24.50
   4  -6  -8   28.80   15.70
  -4   6  -8   35.60   19.40
   4  -6  -8   35.80   23.70
  -5   6   8   -0.60   20.20
  -5  -6  -8   28.10   19.40
  -5   6   8   10.20   26.80
  -5  -6  -8   14.80   18.90
   5  -6   8   18.80   24.20
   5   6  -8    8.10   20.80
  -5   6  -8    6.50   27.20
  -5  -6   8   14.70   24.30
  -5   6  -8   26.10   18.40
   6  -6   8   16.60   26.00
  -6   6   8   16.00   25.70
  -6   6   8   59.29   29.00
  -6   6   8   24.50   22.20
  -6  -6  -8   38.60   23.70
  -6   6  -8   23.60   28.50
  -6  -6   8   19.10   26.80
   0   7   8  340.27   30.10
   0   7  -8  312.77   31.20
   0  -7   8  312.77   32.90
   0  -7  -8  307.67   32.70
   0   7  -8  309.87   29.40
   0  -7  -8  328.47   21.50
  -1  -7  -8  221.38   19.10
   1  -7   8  266.97   36.30
   1   7  -8  237.38   28.50
  -1   7   8  189.58   27.60
  -1  -7  -8  238.18   27.90
   1   7  -8  187.08   22.60
   1   7   8  183.48   26.40
   1  -7  -8  208.68   18.10
   1  -7  -8  211.28   31.70
  -1   7  -8  169.78   28.60
  -1  -7   8  193.08   30.90
  -1   7  -8  234.68   30.20
   2   7  -8  378.36   26.50
  -2  -7  -8  447.26   28.10
   2   7  -8  354.16   34.40
   2  -7   8  431.76   39.10
  -2  -7  -8  465.15   35.20
  -2   7   8  476.95   37.30
  -2  -7   8  445.56   39.00
  -2   7  -8  346.77   33.30
   2   7   8  392.06   30.40
   2  -7  -8  361.46   38.30
   2  -7  -8  430.86   27.30
  -2   7  -8  385.56   37.50
   3   7  -8  263.57   33.60
   3  -7   8  257.77   37.50
  -3   7   8  280.97   36.20
  -3  -7  -8  253.97   25.50
  -3  -7  -8  242.28   27.90
  -3   7  -8  233.88   35.80
  -3   7  -8  267.57   32.10
   3  -7  -8  258.67   28.90
  -3  -7   8  281.87   40.70
   3  -7  -8  240.68   35.20
   3   7   8  282.57   25.40
  -4   7   8  322.37   55.69
   4   7  -8  286.57   34.50
   4  -7   8  240.48   51.99
  -4  -7  -8  245.68   29.60
  -4  -7  -8  319.67   32.70
  -4   7  -8  227.98   32.90
   4  -7  -8  258.47   27.70
   4   7   8  259.97   23.80
  -4  -7   8  231.58   41.60
  -4   7  -8  296.87   41.50
   5   7  -8   87.79   26.10
  -5  -7  -8   99.39   21.00
  -5   7   8   96.29   30.60
  -5   7   8   54.99   23.00
  -5  -7  -8   37.10   23.10
   5  -7   8   99.79   29.50
  -5  -7   8   27.40   26.90
  -5   7  -8   47.00   29.70
  -5   7  -8  136.49   25.80
   0  -8  -8  145.59   18.80
   0  -8  -8  125.59   25.50
   0   8  -8  109.29   25.60
   0   8  -8  105.89   22.00
   0  -8   8  139.59   29.00
   0   8   8  180.88   28.60
  -1  -8  -8   24.30   13.10
   1   8  -8  -14.50   13.40
   1  -8   8    6.40   22.30
  -1   8   8   14.50   17.70
   1   8  -8   12.60   19.20
  -1  -8  -8   24.60   19.60
   1   8   8   55.29   19.00
  -1   8  -8    9.90   20.50
  -1   8  -8   21.30   20.20
  -1  -8   8   41.70   23.10
   1  -8  -8   35.70   12.90
   1  -8  -8   61.79   22.20
   2  -8   8  142.09   32.00
   2   8  -8  100.69   15.90
   2   8  -8  148.49   29.30
  -2   8   8  147.29   27.20
  -2  -8  -8  149.88   20.30
  -2  -8  -8  116.39   26.00
   2   8   8  143.49   24.20
  -2  -8   8  151.38   32.50
   2  -8  -8  155.38   20.20
   2  -8  -8  129.59   31.10
  -2   8  -8  122.49   29.40
  -2   8  -8   91.69   24.80
  -3   8   8   56.69   27.50
  -3  -8  -8   33.90   19.10
  -3  -8  -8   59.79   17.70
   3   8  -8   15.70   19.00
  -3   8  -8   19.80   36.60
  -3   8  -8   99.49   26.70
   3   8   8   36.20   15.00
   3  -8  -8   62.29   28.40
   3  -8  -8   91.39   19.50
   4  -8   8  130.59   32.80
  -4  -8  -8   69.79   22.60
  -4   8   8   85.59   32.30
  -4  -8  -8   68.49   21.40
  -4   8   8   65.49   24.50
   4   8   8   76.89   20.80
  -4   8  -8   51.49   28.20
   4  -8  -8  109.49   24.40
  -4  -8   8   73.79   32.90
  -5  -8  -8   39.70   25.70
  -5   8   8   49.30   29.00
   5  -8   8  -36.70   29.60
  -5   8   8   37.40   21.90
   5   8  -8   42.60   27.20
  -5  -8   8  -18.80   27.60
   5  -8  -8  -29.50   20.50
  -5   8  -8    3.70   31.60
  -5   8  -8  -36.10   22.50
   0   9  -8   14.80   18.80
   0  -9   8   -0.80   23.80
   0   9  -8    0.90   30.30
   0   9   8   -1.00   16.90
   0  -9  -8   29.80   21.70
   0  -9  -8   16.00   13.40
   1  -9   8  624.34   54.99
   1   9  -8  562.64   44.20
  -1  -9  -8  556.74   46.20
  -1  -9  -8  635.84   37.50
   1   9   8  563.74   43.80
  -1   9  -8  683.83   48.20
  -1  -9   8  590.04   61.29
   2  -9   8    2.30   25.30
  -2  -9  -8   29.40   19.70
  -2  -9  -8   -7.00   14.00
   2   9  -8   15.70   23.00
  -2   9   8   12.10   19.50
   2  -9  -8   23.30   24.90
   2   9   8   13.30   14.90
  -2  -9   8   12.40   25.60
   2  -9  -8   31.10   16.70
  -2   9  -8    6.30   21.40
   3   9  -8  447.36   43.60
   3  -9   8  366.96   52.59
  -3  -9  -8  435.66   43.30
  -3  -9  -8  377.86   34.70
  -3   9   8  450.85   42.80
  -3  -9   8  427.36   53.29
  -3   9  -8  458.05   47.10
  -3   9  -8  405.76   42.50
   3   9   8  402.76   35.20
   3  -9  -8  299.07   44.20
   3  -9  -8  380.06   33.90
  -4  -9  -8   27.20   18.40
  -4   9   8   33.50   32.50
   4   9  -8   20.40   23.80
  -4   9   8  -19.10   19.70
  -4  -9  -8   -3.70   24.70
   4  -9   8  -27.90   26.10
  -4   9  -8   52.59   30.80
  -4   9  -8    6.20   25.00
  -4  -9   8   29.80   31.40
   4  -9  -8   28.50   32.70
   0  10  -8   58.39   23.70
   0  10  -8   18.60   22.10
   0  10   8   53.09   22.70
   0 -10  -8   27.80   17.60
   0 -10   8   53.59   28.60
   0 -10  -8   16.30   24.00
   1  10  -8  -17.60   22.10
   1 -10   8    0.80   24.90
  -1 -10  -8   27.50   16.80
   1  10  -8  -36.20   19.30
  -1  10   8    8.90   19.10
  -1 -10  -8  -13.80   19.40
   1 -10  -8   -6.80   15.60
  -1 -10   8   41.80   28.00
   1 -10  -8    1.70   23.70
   1  10   8   10.60   18.70
  -1  10  -8    1.50   23.30
   2  10  -8   98.19   29.00
   2 -10   8  104.79   32.60
  -2 -10  -8  104.39   25.90
  -2  10   8  118.59   28.60
  -2 -10  -8  146.79   30.40
  -2 -10   8  125.29   32.50
  -2  10  -8  115.39   30.00
  -2  10  -8   69.89   27.60
   2 -10  -8   87.19   23.30
   2 -10  -8  106.79   29.80
   2  10   8  139.49   27.50
  -3  10   8   21.20   23.30
   3 -10   8   47.70   31.80
   3  10  -8   15.80   23.30
  -3 -10  -8   49.99   23.50
  -3  10   8  -51.69   25.50
   3  10   8   23.80   20.50
   3 -10  -8    9.20   32.70
  -3  10  -8   41.80   25.10
  -3 -10   8   65.49   31.80
   3 -10  -8   72.99   32.90
  -3  10  -8   50.39   30.90
   0  11   8  101.29   27.80
   0 -11   8   85.69   33.30
   0  11  -8  126.09   31.40
   0  11  -8  106.59   33.10
   0 -11  -8   71.39   26.80
  -1 -11  -8   12.40   23.00
   1  11  -8   42.50   27.70
   1 -11   8   26.00   26.70
  -1  11   8   28.70   22.40
  -1  11  -8   21.00   28.00
  -1  11  -8  -10.60   24.60
   1  11   8   13.30   19.30
  -1 -11   8   64.99   33.50
   1 -11  -8   66.19   30.60
   2  11  -8  115.09   33.00
  -2  11   8  142.19   46.00
  -2 -11  -8  119.59   28.80
   2  11   8  147.49   30.80
  -2  11  -8  110.09   43.30
  -2  11  -8  131.59   35.90
   0   0  -9    9.50    9.30
   0   0   9    4.50    3.00
   0   0  -9    6.70    9.30
   0   0  -9    7.80    2.90
  -1   0  -9  545.25   30.60
   1   0  -9  555.54   31.60
  -1   0   9  588.54   28.40
  -1   0  -9  503.45   22.20
  -1   0   9  587.94   23.80
   1   0  -9  531.75   32.00
  -1   0  -9  542.35   33.60
   1   0   9  513.25   21.50
  -2   0   9   19.80    8.50
   2   0   9   44.70    9.10
   2   0  -9   31.80   11.70
  -2   0  -9   47.90   12.40
   2   0  -9   21.70   12.50
  -2   0  -9   28.40   14.90
   3   0  -9   80.49   17.30
   3   0  -9   80.89   15.20
   3   0   9   96.09   14.60
  -3   0   9   80.49   14.90
  -3   0  -9   78.39   13.90
  -4   0  -9   55.79   12.20
  -4   0  -9   37.20   13.80
  -4   0   9   51.99   15.00
  -4   0  -9   44.30   19.60
   4   0  -9   71.49   14.10
   4   0  -9   45.80   17.00
  -5   0  -9   92.69   17.90
  -5   0  -9   68.99   25.80
  -5   0   9   82.59   22.10
  -5   0   9   91.49   14.10
   5   0  -9   84.59   20.50
  -6   0  -9   27.80   21.20
   6   0  -9  -10.20   17.90
  -6   0  -9    9.00   35.50
  -7   0  -9   96.69   29.00
  -7   0  -9   37.00   26.70
  -7   0   9   76.29   32.80
   0  -1  -9  986.10   47.30
   0   1  -9 1004.00   47.70
   0   1  -9 1017.60   39.30
   0  -1   9 1080.49   40.20
   0  -1  -9 1060.69   49.50
   0   1  -9 1054.59   48.40
  -1  -1  -9  873.61   40.70
   1   1  -9  952.70   43.90
   1   1  -9  865.61   40.90
  -1   1   9  859.01   28.60
  -1  -1  -9  881.01   44.70
   1  -1   9  851.31   34.50
  -1   1  -9  756.82   40.00
   1  -1  -9  847.32   42.50
  -1  -1   9  798.92   35.30
  -1   1  -9  798.72   43.60
   1  -1  -9  776.92   41.50
  -2  -1  -9  303.47   17.40
   2   1  -9  306.37   21.70
  -2   1   9  306.17   17.80
   2   1  -9  320.07   26.00
  -2  -1  -9  328.57   26.70
  -2  -1  -9  325.27   16.80
  -2  -1  -9  325.77   22.10
   2  -1   9  320.07   20.50
  -2   1  -9  343.47   23.70
   2  -1  -9  303.57   25.60
  -2   1  -9  307.47   28.10
   2  -1  -9  320.67   24.20
  -2  -1   9  325.37   21.20
   3   1  -9  705.93   40.30
  -3   1   9  758.82   34.80
  -3  -1  -9  676.83   32.10
   3   1  -9  661.83   33.10
  -3  -1  -9  738.73   33.90
   3  -1   9  693.23   35.60
  -3   1  -9  610.44   33.80
  -3   1  -9  592.74   41.50
   3  -1  -9  580.14   35.90
   3  -1  -9  638.14   39.00
  -3  -1   9  625.64   35.40
  -4  -1  -9  214.78   29.30
  -4  -1  -9  183.28   19.70
   4  -1   9  178.68   23.30
   4   1  -9  176.58   25.20
  -4   1   9  200.98   21.40
   4   1  -9  212.08   20.60
   4  -1  -9  194.38   22.20
  -4   1  -9  193.38   31.30
  -4  -1   9  156.98   24.10
  -4   1  -9  183.28   17.00
   4  -1  -9  209.68   27.90
   5   1  -9  359.66   31.80
   5  -1   9  306.97   29.60
  -5   1   9  330.67   26.00
  -5   1   9  374.76   32.40
  -5  -1  -9  333.67   29.40
  -5  -1  -9  268.07   33.50
  -5   1  -9  239.68   26.40
  -5   1  -9  252.57   35.50
  -5  -1   9  245.48   28.60
   5  -1  -9  227.48   27.60
  -6   1   9  220.08   42.50
   6   1  -9  176.48   26.40
  -6  -1  -9  198.78   29.70
  -6  -1  -9  225.78   53.09
  -6  -1   9  193.38   34.00
  -6   1  -9  176.58   32.90
   6  -1  -9  213.88   27.90
  -7  -1  -9  134.39   31.50
  -7   1   9  180.58   33.20
  -7  -1  -9  140.69   32.70
  -7  -1   9   54.79   30.00
  -7   1  -9   81.49   29.30
  -7   1  -9   56.69   28.70
   0  -2  -9  378.56   26.80
   0  -2   9  424.86   22.90
   0  -2  -9  416.26   29.30
   0   2  -9  398.26   27.00
   0   2  -9  359.16   26.80
  -1  -2  -9   30.60   12.80
   1  -2   9   39.70   10.50
   1   2  -9   30.20   11.50
   1   2  -9   46.70   14.40
  -1  -2  -9   35.80   11.60
   1  -2  -9   35.40   11.50
  -1   2  -9   39.30   13.00
  -1   2  -9   50.39   16.30
   1  -2  -9   34.90   12.70
  -1  -2   9   21.50    9.70
   2  -2   9  278.77   21.70
  -2  -2  -9  314.47   22.40
  -2  -2  -9  308.37   15.50
   2   2  -9  293.77   21.10
  -2  -2  -9  313.97   27.10
   2   2  -9  298.67   25.80
  -2   2   9  327.47   17.30
  -2  -2  -9  287.97   15.50
  -2  -2   9  278.47   21.80
   2  -2  -9  298.07   25.40
  -2   2  -9  304.97   23.70
  -2   2  -9  277.17   28.00
   2  -2  -9  291.77   25.70
  -3  -2  -9   15.50    8.70
  -3  -2  -9   -6.20   13.50
   3   2  -9   -4.40    7.60
  -3  -2  -9    4.80    8.00
   3  -2   9    4.60   10.70
   3   2  -9   22.80   14.60
  -3   2   9   11.90    8.70
  -3  -2   9   32.30   13.10
  -3   2  -9   10.70   10.70
   3  -2  -9   16.40   12.60
  -3   2  -9    2.80   15.00
  -4  -2  -9  239.98   31.50
  -4  -2  -9  195.58   20.30
  -4   2   9  197.08   21.80
   4   2  -9  201.68   24.70
   4  -2   9  201.58   28.00
  -4   2  -9  183.78   19.80
  -4   2  -9  197.58   30.90
   4  -2  -9  187.78   26.70
   4  -2  -9  200.48   25.10
  -4  -2   9  160.08   24.00
   5  -2   9   21.10   19.10
  -5   2   9   28.00   15.70
   5   2  -9   23.60   16.80
  -5  -2  -9   32.00   19.00
  -5  -2  -9   48.40   16.70
   5  -2  -9   17.40   16.80
  -5  -2   9   -2.30   18.60
  -5   2  -9   13.90   22.80
   6   2  -9  104.29   23.00
  -6  -2  -9  143.29   32.00
  -6  -2  -9   95.09   24.30
  -6  -2   9  102.99   27.50
  -6   2  -9   70.89   25.00
   6  -2  -9   79.09   23.10
  -6   2  -9  100.79   30.00
  -7   2   9    3.50   26.10
  -7  -2  -9   29.50   23.30
  -7  -2  -9   56.69   28.70
  -7   2  -9   31.10   28.10
  -7  -2   9   68.39   39.90
  -7   2  -9   12.00   26.30
   0  -3  -9  959.40   46.70
   0   3  -9  966.70   46.10
   0   3  -9  921.51   46.40
   0  -3  -9  897.51   48.00
   0  -3   9  958.90   43.10
  -1  -3  -9   17.80   11.90
   1   3  -9   13.50   13.20
   1   3  -9   18.60   10.30
  -1  -3  -9   45.80   13.30
   1  -3   9   11.40    9.60
  -1   3  -9   40.60   13.20
   1  -3  -9   38.20   13.50
  -1   3  -9   27.40   14.30
  -1  -3   9   57.39   12.90
   1  -3  -9   39.80   15.50
  -2  -3  -9  599.74   25.10
  -2   3   9  603.94   26.60
  -2  -3  -9  620.24   25.60
  -2  -3  -9  540.05   31.60
  -2  -3  -9  552.14   38.10
   2   3  -9  660.33   31.60
   2  -3   9  605.94   33.80
   2   3  -9  589.44   37.80
   2  -3  -9  669.43   38.90
  -2  -3   9  668.23   36.30
   2  -3  -9  674.43   39.00
  -2   3  -9  649.54   40.10
  -2   3  -9  625.94   35.90
   3   3  -9   46.30   26.50
  -3  -3  -9   73.39   12.10
  -3  -3  -9  107.69   22.40
   3  -3   9   59.39   16.40
   3   3  -9   59.69    9.20
  -3   3   9   73.99   13.70
  -3  -3  -9   86.49   14.10
   3  -3  -9   86.79   19.00
   3  -3  -9   74.99   18.10
  -3   3  -9  108.89   17.00
  -3  -3   9  100.19   18.90
  -3   3  -9   82.29   21.10
  -3  -3   9  106.99   12.60
  -4   3   9  483.65   31.10
  -4  -3  -9  343.67   33.70
  -4  -3  -9  424.96   28.30
   4  -3   9  405.06   33.30
   4   3  -9  442.06   33.40
  -4   3  -9  414.86   28.60
  -4  -3   9  431.36   36.00
   4   3   9  417.16   23.10
  -4   3  -9  386.96   37.20
   4  -3  -9  447.96   35.50
   4  -3  -9  382.66   34.10
   5   3  -9    4.90   14.70
  -5   3   9   17.60   17.50
  -5  -3  -9  -10.00   16.10
   5  -3   9   -0.70   18.30
  -5  -3  -9  -17.80   12.00
  -5   3   9   14.20   16.00
  -5   3  -9   20.20   13.40
  -5  -3   9    6.60   21.50
   5  -3  -9   48.90   19.80
  -5   3  -9   33.60   23.50
  -6  -3  -9  275.87   32.50
  -6   3   9  183.88   29.00
  -6   3   9  285.27   47.90
   6  -3   9  175.78   34.90
  -6   3   9  196.88   31.30
  -6  -3  -9  222.28   43.70
   6   3  -9  186.58   29.60
  -6  -3   9  286.77   41.50
  -6   3  -9  272.87   42.30
   0  -4  -9  133.79   23.10
   0   4  -9  108.29   20.00
   0   4  -9  107.59   18.20
   0  -4   9  122.39   19.40
   0  -4  -9  106.59   19.30
   1   4  -9  156.28   23.50
   1   4  -9  138.79   18.10
  -1  -4  -9  201.68   26.80
   1  -4   9  172.58   22.00
  -1  -4  -9  209.18   25.20
  -1   4  -9  167.98   23.70
  -1   4  -9  185.78   24.30
   1  -4  -9  135.19   22.00
  -1  -4   9  164.78   23.00
   1  -4  -9  164.08   24.70
  -2   4   9  143.89   12.80
  -2  -4  -9  145.69   25.40
   2   4  -9  117.79   21.40
  -2  -4  -9  144.89   12.20
   2  -4   9  181.48   20.90
  -2  -4  -9  136.59   16.90
  -2  -4  -9  130.79   14.60
   2   4  -9  134.39   22.80
  -2  -4   9  137.29   22.00
  -2   4  -9  138.99   24.40
  -2   4  -9  140.69   21.70
   2  -4  -9  209.38   28.30
   3   4  -9   52.29    9.70
  -3   4   9   72.49   14.00
   3  -4   9   40.80   23.90
   3   4  -9   70.89   19.40
  -3  -4  -9   54.29   11.90
  -3  -4  -9   82.19   18.50
   3  -4  -9   42.60   17.20
   3  -4  -9   40.70   17.60
  -3   4  -9   54.49   21.70
  -3   4  -9   68.59   17.70
   3   4   9   80.79   14.50
  -3  -4   9   45.60   18.40
   4   4  -9  110.99   21.90
  -4  -4  -9  109.09   18.40
  -4   4   9  102.79   19.30
   4  -4   9   92.39   21.90
  -4  -4  -9  113.29   23.10
  -4  -4   9  125.39   22.70
   4  -4  -9   95.19   21.40
   4  -4  -9  114.09   24.40
  -4   4  -9  118.09   19.30
   4   4   9  119.59   14.40
  -4   4  -9  114.69   27.10
  -5   4   9   53.39   22.20
  -5  -4  -9  113.79   24.70
  -5  -4  -9   96.19   21.50
   5   4  -9  120.39   22.20
  -5   4   9   96.09   22.90
  -5   4   9   86.49   20.70
   5  -4   9   76.79   27.60
  -5  -4   9   61.19   25.40
  -5   4  -9   80.99   18.30
  -5   4  -9   79.69   30.10
  -6   4   9   20.50   21.80
   6  -4   9   43.60   27.10
  -6   4   9   -2.40   24.60
  -6  -4   9   77.19   32.00
  -6   4  -9    6.70   26.00
   0  -5   9  584.14   36.90
   0   5  -9  508.95   34.20
   0  -5  -9  491.75   36.20
   0  -5  -9  526.25   37.70
   0   5  -9  501.95   35.30
  -1  -5  -9  103.39   18.90
  -1  -5  -9   95.59   21.10
  -1  -5  -9   81.19    8.50
   1  -5   9  155.58   23.50
   1   5  -9   93.09   16.40
   1   5  -9  107.49   22.20
  -1  -5  -9   93.29    7.80
  -1   5  -9  118.89   21.40
  -1   5  -9   85.39   20.40
   1  -5  -9   76.89   20.10
   1  -5  -9   82.79   20.60
  -1  -5   9   65.79   19.40
   1  -5  -9   75.29    8.30
  -2  -5  -9  639.54   30.10
   2   5  -9  700.73   38.40
   2   5  -9  638.24   42.40
  -2  -5  -9  679.43   42.30
   2  -5  -9  686.13   44.70
  -2  -5   9  697.03   62.09
  -2   5  -9  735.23   42.20
   2  -5  -9  676.93   42.90
  -2   5  -9  686.53   44.60
   2   5   9  662.33   37.20
  -3  -5  -9    7.40    9.50
  -3  -5  -9   17.00   14.20
   3  -5   9   32.60   17.60
   3   5  -9   26.20   18.30
  -3   5  -9   11.90   13.20
   3  -5  -9    6.10   15.00
  -3  -5   9   25.70   19.00
   3   5   9    9.20   10.80
   3  -5  -9   27.80   10.70
  -3   5  -9   16.40   18.40
   3  -5  -9   17.90   17.70
  -4  -5  -9  450.55   30.80
  -4  -5  -9  451.85   35.40
   4  -5   9  412.66   38.50
   4   5  -9  432.46   35.40
  -4   5   9  444.66   36.10
  -4  -5   9  363.46   38.00
   4  -5  -9  314.77   35.30
  -4   5  -9  372.76   32.00
  -4   5  -9  351.16   40.90
   4   5   9  360.36   24.00
  -5   5   9   27.40   22.60
   5   5  -9   49.40   23.20
  -5   5   9   14.90   20.30
  -5  -5  -9   12.80   18.00
   5  -5   9   -2.80   22.50
  -5  -5  -9    8.60   17.80
  -5   5   9   17.20   19.70
  -5   5  -9   26.80   17.30
  -5   5  -9   16.50   27.00
  -5  -5   9   20.50   23.60
   6  -5   9  119.59   33.70
  -6  -5  -9  159.48   28.40
  -6   5   9  179.28   30.70
  -6   5   9  130.59   32.20
  -6  -5  -9  161.28   29.90
  -6   5   9  165.88   31.60
  -6   5  -9   82.19   34.20
  -6  -5   9  109.49   32.00
   0   6  -9  153.38   25.10
   0  -6   9  168.38   27.60
   0   6   9  240.18   29.70
   0   6  -9  189.18   23.80
   0   6   9  164.28   14.70
   0  -6  -9  177.58   11.90
   0  -6  -9  161.38   25.00
  -1   6   9   70.89   20.30
   1   6  -9   40.30   18.00
   1  -6   9   51.19   20.90
   1   6  -9   54.09   14.60
  -1  -6  -9   74.49    9.90
  -1  -6  -9   43.90   18.00
  -1   6  -9   38.00   17.80
   1  -6  -9   55.59    9.20
   1  -6  -9   38.50   17.50
  -1   6  -9   71.49   19.80
   1   6   9   34.80   14.80
  -1  -6   9   74.09   20.30
   1  -6  -9   33.90   16.30
  -2   6   9  244.18   31.80
   2   6  -9  201.48   17.60
  -2  -6  -9  181.18   16.90
   2  -6   9  230.68   31.00
   2   6  -9  227.38   30.50
  -2  -6  -9  235.38   31.60
   2  -6  -9  203.38   31.40
   2   6   9  183.08   21.60
   2  -6  -9  211.18   17.30
  -2   6  -9  228.88   29.80
  -2   6  -9  248.68   30.50
  -2  -6   9  222.98   32.30
   3   6  -9   23.10   20.40
  -3  -6  -9   13.20   11.10
   3  -6   9   28.10   19.50
  -3  -6  -9   -3.20   12.90
  -3   6   9   17.60   16.70
  -3   6  -9   -2.60   20.90
   3  -6  -9   12.50   19.30
   3   6   9   12.00   12.00
  -3   6  -9   22.50   17.00
  -3  -6   9   18.90   20.20
   3  -6  -9   15.90   11.10
  -4  -6  -9  166.58   28.30
  -4   6   9  148.29   29.20
   4  -6   9  104.09   29.00
  -4  -6  -9  150.38   23.20
   4   6  -9  139.29   29.00
   4   6   9  145.89   19.10
  -4  -6   9  125.59   30.60
  -4   6  -9  128.89   34.70
   4  -6  -9  146.49   21.90
   4  -6  -9  129.19   32.30
  -4   6  -9  128.29   23.30
   5   6  -9   46.20   26.50
  -5   6   9   14.60   19.00
  -5  -6  -9  -10.10   17.00
   5  -6   9  -13.20   21.50
  -5  -6  -9   -2.20   16.70
  -5   6   9   35.00   26.90
  -5   6   9   -4.60   18.80
  -5  -6   9    6.90   27.10
  -5   6  -9   12.80   27.20
  -5   6  -9   39.10   21.20
  -6   6   9   49.00   25.60
  -6   6   9   31.90   22.90
  -6   6   9    5.20   26.60
  -6  -6  -9   31.70   29.00
  -6   6  -9   91.39   53.09
   0  -7   9 1359.66   70.09
   0   7  -9 1411.56   71.49
   0   7   9 1482.65   69.29
   0   7  -9 1279.57   68.79
   0  -7  -9 1344.97   69.99
   1   7  -9   36.00   22.00
  -1   7   9   40.10   17.90
  -1  -7  -9   44.60   17.10
   1  -7   9   70.39   21.60
   1   7  -9   46.60   15.60
  -1  -7  -9   64.59   12.10
  -1   7  -9   66.49   21.20
   1  -7  -9   82.49   12.10
   1   7   9   48.90   16.10
  -1  -7   9   77.29   22.80
  -1   7  -9   38.10   21.00
   1  -7  -9   34.60   19.20
   2  -7   9 1063.79   62.29
   2   7  -9 1112.59   47.30
  -2  -7  -9 1094.79   61.79
  -2   7   9 1083.39   61.39
  -2  -7  -9 1145.79   48.40
   2   7  -9 1127.39   62.59
   2  -7  -9 1085.19   63.99
   2   7   9 1200.18   56.79
   2  -7  -9 1097.39   47.90
  -2  -7   9 1078.59   64.89
  -2   7  -9 1092.79   63.19
   3   7  -9    3.60   19.60
  -3  -7  -9   37.10   19.70
  -3  -7  -9   23.10   13.70
   3  -7   9    9.20   22.70
  -3   7   9   57.19   20.80
  -3   7  -9   70.69   22.60
  -3   7  -9   72.29   25.70
   3   7   9   40.50   15.60
   3  -7  -9   68.49   27.40
   3  -7  -9   64.89   16.00
  -3  -7   9   78.59   27.70
   4   7  -9  656.63   49.80
   4  -7   9  659.03   54.39
  -4   7   9  733.03   50.69
  -4  -7  -9  663.33   43.10
  -4  -7  -9  618.34   46.00
  -4  -7   9  719.33   58.89
  -4   7  -9  735.83   58.29
  -4   7  -9  620.84   46.30
   4  -7  -9  688.33   53.59
   4  -7  -9  667.93   40.70
   4   7   9  709.13   41.50
   5   7  -9   28.20   24.10
  -5   7   9   66.39   24.30
   5  -7   9   35.50   24.40
  -5   7   9   29.10   26.70
  -5  -7  -9   64.59   22.70
  -5  -7  -9   32.70   25.30
  -5  -7   9   59.19   30.90
  -5   7  -9   32.10   25.00
  -5   7  -9   19.60   27.40
   0   8  -9   54.59   24.10
   0  -8  -9   38.00   12.20
   0   8  -9   58.79   20.30
   0   8   9   18.10   16.30
   0  -8   9   29.40   22.80
   0  -8  -9   46.20   22.50
  -1   8   9    9.50   16.90
   1  -8   9   11.10   24.50
   1   8  -9   29.90   16.40
  -1  -8  -9   26.60   19.80
  -1  -8  -9    4.50   11.40
   1   8  -9   -2.40   20.50
  -1  -8   9  -11.00   21.60
   1  -8  -9   20.10   21.50
   1  -8  -9   17.60   12.10
   1   8   9    6.20   14.40
  -1   8  -9    3.60   19.90
  -1   8  -9   42.40   21.50
  -2  -8  -9   15.10   16.60
   2  -8   9   -6.70   20.00
   2   8  -9   -6.90   19.10
  -2  -8  -9   21.30   11.90
  -2   8  -9   32.10   21.50
  -2   8  -9   -5.80   19.50
   2  -8  -9    7.90   12.00
   2   8   9   18.00   14.90
  -2  -8   9   19.60   24.00
  -3  -8  -9   16.20   19.50
  -3  -8  -9   21.20   18.60
  -3   8   9    1.50   17.90
   3  -8   9   -3.90   25.20
   3   8  -9   -4.60   29.70
   3  -8  -9   42.90   16.10
  -3  -8   9   45.40   28.90
   3  -8  -9   -1.60   24.00
   3   8   9   27.50   15.30
  -3   8  -9   14.10   25.40
  -4  -8  -9   26.10   26.00
  -4   8   9  -14.40   19.00
  -4   8   9   -1.10   30.50
  -4  -8  -9   13.30   24.10
   4   8  -9  -22.90   22.20
   4  -8   9   12.90   25.90
  -4   8  -9  -20.90   21.70
   4  -8  -9   32.80   21.10
   4  -8  -9   -0.50   27.80
  -4   8  -9   21.00   26.70
  -4  -8   9   20.00   29.10
  -5   8   9   -4.20   45.10
  -5   8   9    5.60   21.90
  -5   8   9   39.40   35.80
   5   8  -9    7.00   28.00
  -5   8  -9   33.10   26.60
  -5   8  -9   -8.40   29.20
   0  -9  -9  290.47   25.00
   0   9   9  334.57   45.20
   0   9  -9  279.27   34.20
   0   9  -9  280.77   40.80
   0  -9  -9  302.57   42.80
   0  -9   9  288.27   63.39
  -1   9   9  396.76   39.40
  -1  -9  -9  466.75   58.29
   1  -9   9  368.26   43.10
  -1  -9  -9  397.36   33.50
   1   9  -9  380.76   32.90
   1   9  -9  351.46   42.30
  -1   9  -9  358.46   41.00
  -1  -9   9  379.26   43.00
  -1   9  -9  408.76   41.40
   1  -9  -9  366.16   42.10
   1  -9  -9  350.46   28.40
  -2  -9  -9  173.58   34.90
  -2   9   9  160.18   30.90
   2   9  -9  181.28   34.40
   2  -9   9  141.39   35.20
   2  -9  -9  137.19   33.50
  -2  -9   9  223.28   38.90
   2  -9  -9  157.58   23.70
  -2   9  -9  190.78   34.10
  -2   9  -9  213.68   35.30
   2   9   9  197.78   32.30
  -3  -9  -9  170.08   31.80
   3  -9   9  185.08   40.40
  -3   9   9  210.18   34.20
   3   9  -9  167.68   31.80
  -3  -9   9  197.08   38.00
  -3   9  -9  128.79   32.80
   3  -9  -9  187.08   45.70
  -3   9  -9  184.48   33.40
   3   9   9  176.18   27.90
   3  -9  -9  169.38   37.60
   4   9  -9  138.49   32.60
  -4  -9  -9  180.28   30.70
   4  -9   9  136.89   38.00
  -4   9   9  122.59   30.90
  -4   9   9   71.09   37.20
  -4   9  -9   88.69   28.50
  -4  -9   9  174.58   43.90
  -4   9  -9  146.59   48.10
   0  10   9   29.20   21.10
   0 -10   9   32.00   28.30
   0 -10  -9  -10.80   21.90
   0  10  -9  -13.50   24.40
   0  10  -9  -12.30   23.20
  -1 -10  -9   31.50   23.70
   1  10  -9   11.30   25.60
  -1  10   9   14.30   22.00
   1 -10   9   44.10   30.30
   1 -10  -9   78.29   30.00
  -1 -10   9   36.50   28.40
   1  10   9   40.70   20.10
  -1  10  -9   22.90   26.20
  -1  10  -9   53.19   27.40
   2  10  -9   66.99   26.40
  -2 -10  -9   18.50   23.70
  -2  10   9   13.90   22.70
   2 -10   9   13.50   29.40
   2  10   9   10.60   18.80
   2 -10  -9   25.10   25.90
  -2  10  -9   -4.40   26.10
  -2 -10   9  -43.30   28.30
  -2  10  -9    2.80   24.50
   3 -10   9  -10.30   31.10
  -3  10   9    2.10   28.20
   3  10  -9    4.40   27.10
  -3 -10  -9   12.90   22.90
  -3 -10   9   13.60   35.20
  -3  10  -9   56.29   28.20
   3  10   9  -44.30   19.40
  -3  10  -9    5.10   28.40
   0  11  -9  -30.30   27.70
   0 -11   9   73.09   34.70
   0  11  -9   17.50   33.40
   0  11   9   21.40   19.70
   0 -11  -9   -0.20   25.60
   1 -11   9  140.39   51.19
  -1 -11  -9   70.49   28.70
  -1  11  -9   39.60   32.30
  -1 -11   9  135.79   61.69
   1  11   9   65.79   25.50
  -1  11  -9   49.50   45.70
   0   0 -10  676.13   38.80
   0   0 -10  682.13   38.20
  -1   0  10    9.00    5.70
  -1   0 -10   -0.50   11.60
   1   0  10    4.30    4.20
  -1   0 -10    6.50    4.50
   1   0 -10    0.70   10.90
   1   0 -10   -7.00    8.80
  -1   0 -10   -2.80    9.50
  -2   0 -10  842.62   54.99
   2   0  10  986.10   38.70
   2   0 -10  935.01   49.00
  -2   0  10  958.10   40.00
   2   0 -10  956.20   46.40
  -2   0 -10  985.00   45.90
   3   0 -10   31.50   15.30
  -3   0 -10   -6.70   12.90
  -3   0  10   -1.00    9.00
   3   0 -10    4.00   11.00
  -3   0 -10    0.20    9.30
  -3   0 -10    4.00    7.60
   4   0 -10  656.83   36.40
  -4   0 -10  682.13   37.40
  -4   0  10  662.53   39.40
  -4   0 -10  672.83   46.90
  -4   0 -10  667.63   33.90
   4   0 -10  704.93   43.60
  -5   0 -10   40.30   23.50
  -5   0  10   59.79   17.00
  -5   0 -10   37.10   15.80
  -5   0  10   62.39   18.30
   5   0 -10   39.00   18.90
   6   0 -10  192.68   29.10
  -6   0  10  211.48   34.60
  -6   0 -10  230.48   38.10
   0   1 -10  570.14   24.90
   0   1 -10  558.64   34.80
   0  -1  10  579.34   25.10
   0  -1 -10  629.84   35.40
   0  -1 -10  628.64   36.70
   0   1 -10  566.74   34.50
   1   1 -10   79.59   17.80
  -1  -1 -10  105.69   20.00
  -1  -1 -10  131.39   19.70
   1  -1  10   96.69   10.40
   1   1 -10  101.59   16.90
   1  -1 -10  104.39   19.20
  -1   1 -10   95.19   20.30
  -1   1 -10  100.39   18.70
  -1  -1  10   78.59   11.40
   1  -1 -10   83.19   17.70
  -2   1  10  709.63   30.90
  -2  -1 -10  711.23   37.40
   2   1 -10  681.43   41.20
  -2  -1 -10  727.63   28.90
   2  -1  10  743.53   33.60
   2   1 -10  722.63   37.70
  -2  -1 -10  717.63   29.50
  -2   1 -10  742.73   39.00
   2  -1 -10  776.42   41.10
  -2  -1  10  786.52   35.70
   2  -1 -10  714.13   42.30
  -3   1  10   38.80   11.40
   3   1 -10   40.70   12.60
   3   1 -10   20.40   15.10
  -3  -1 -10   60.99   19.80
   3  -1  10   80.79   15.70
  -3  -1 -10   80.59   15.00
  -3  -1 -10   52.99   11.20
   3  -1 -10   75.09   19.00
  -3  -1  10   53.79   14.10
  -3   1 -10   30.40   16.90
   3  -1 -10   63.19   16.30
  -3   1 -10   55.59   14.40
   4   1 -10  443.36   26.80
   4   1 -10  410.06   33.60
  -4   1  10  457.05   32.10
  -4  -1 -10  436.76   28.90
  -4  -1 -10  424.66   38.00
   4  -1  10  419.36   31.30
  -4  -1 -10  447.76   25.60
  -4  -1  10  479.25   49.60
   4  -1 -10  501.45   37.00
   4  -1 -10  560.54   33.80
  -4   1 -10  482.85   41.00
  -4   1 -10  518.35   29.10
  -5   1  10    8.00   16.10
  -5  -1 -10   30.10   21.50
  -5  -1 -10   40.00   16.00
  -5   1  10   30.90   15.10
   5   1 -10   40.30   18.50
  -5   1 -10   38.20   20.80
   5  -1 -10   59.99   19.00
  -5  -1  10   56.79   22.70
  -5   1 -10   73.99   18.90
   6   1 -10  141.39   26.00
  -6   1  10  130.99   34.10
  -6  -1 -10   96.39   27.60
  -6  -1 -10   93.59   28.80
  -6  -1  10  103.19   28.70
   6  -1 -10   81.59   23.40
  -6   1 -10  132.19   27.10
  -6   1 -10  102.89   30.90
   0  -2 -10  615.14   36.70
   0   2 -10  542.55   34.10
   0  -2 -10  553.44   34.10
   0   2 -10  573.54   35.80
   1  -2  10  169.38   16.30
  -1  -2 -10  156.58   19.00
   1   2 -10  161.88   22.40
  -1  -2 -10  178.28   22.60
   1   2 -10  157.28   19.10
  -1  -2  10  160.38   16.80
   1  -2 -10  172.98   23.90
  -1   2 -10  210.78   21.90
  -1   2 -10  192.68   26.80
   1  -2 -10  160.78   22.90
   2  -2  10  500.85   28.10
  -2   2  10  491.85   21.30
  -2  -2 -10  431.16   18.70
  -2   2  10  446.56   20.90
  -2  -2 -10  463.55   36.70
  -2  -2 -10  462.55   20.40
  -2  -2 -10  474.75   29.20
   2   2 -10  443.56   27.60
   2  -2 -10  446.46   36.20
  -2   2 -10  441.06   37.70
  -2   2 -10  442.96   30.80
   2  -2 -10  430.06   31.90
  -2  -2  10  432.26   29.00
   3   2 -10  355.16   23.50
  -3   2  10  364.26   23.10
  -3  -2 -10  389.16   24.90
  -3  -2 -10  351.56   21.80
   3  -2  10  374.76   27.90
   3   2 -10  339.47   29.80
  -3  -2 -10  372.06   32.90
  -3   2 -10  412.36   36.60
   3  -2 -10  401.16   31.30
   3  -2 -10  400.36   31.70
  -3  -2  10  415.46   29.20
  -3   2 -10  380.26   27.80
   4  -2  10  234.98   28.00
  -4   2  10  202.28   22.70
  -4  -2 -10  211.28   17.90
  -4  -2 -10  200.28   30.50
  -4  -2 -10  216.18   21.20
   4   2 -10  247.78   31.20
   4  -2 -10  261.07   31.30
  -4   2 -10  228.08   36.30
  -4   2 -10  189.38   21.40
   4  -2 -10  241.58   27.70
  -4  -2  10  268.37   27.90
  -5  -2 -10  101.59   19.50
   5  -2  10   58.49   22.40
   5   2 -10   55.89   20.00
  -5   2  10   80.19   19.60
  -5  -2 -10  108.69   26.30
  -5   2  10   80.99   21.50
  -5  -2  10   70.39   24.80
  -5   2 -10   76.29   30.90
   5  -2 -10   85.89   22.50
   6   2 -10   44.40   24.10
  -6  -2 -10   81.69   26.40
  -6  -2 -10   70.99   23.70
  -6   2  10  104.89   31.60
  -6   2 -10   44.30   22.50
   6  -2 -10  125.39   28.20
  -6   2 -10   80.29   30.00
  -6  -2  10   98.29   29.40
   0   3 -10  978.50   47.70
   0  -3 -10  936.91   50.19
   0   3 -10  881.51   47.60
   0  -3  10  907.91   42.80
   0  -3 -10  906.91   47.40
   1   3 -10  168.88   18.60
   1  -3  10  152.08   18.30
  -1  -3 -10  194.88   20.10
   1  -3 -10  150.98   24.10
  -1  -3  10  132.09   18.60
  -1   3 -10  134.39   21.40
  -1   3 -10  178.38   24.20
  -2  -3 -10  840.92   42.70
   2   3 -10  876.31   41.40
   2   3 -10  878.11   48.80
  -2   3  10  897.21   33.80
   2  -3  10  919.71   43.60
  -2  -3 -10  894.61   50.49
  -2  -3 -10  826.12   32.70
  -2  -3 -10  884.31   30.80
  -2   3 -10  926.71   52.29
  -2  -3  10  875.91   45.20
   2  -3 -10  857.81   52.49
   2  -3 -10  929.41   49.40
  -2   3 -10  823.42   45.00
  -3  -3 -10   51.39   11.50
  -3   3  10   36.30   11.00
   3   3 -10   33.20   10.10
  -3  -3 -10   59.69   18.70
   3  -3  10   62.49   16.60
  -3  -3 -10   35.60   12.00
   3   3 -10   53.79   17.90
  -3  -3  10   52.49   16.20
   3  -3 -10   30.70   17.80
   3  -3 -10   60.99   19.00
  -3   3 -10   40.00   19.10
  -3   3 -10   60.39   16.80
  -4  -3 -10  458.05   29.80
  -4  -3 -10  437.86   38.00
   4   3 -10  454.15   35.90
   4  -3  10  500.05   36.20
  -4   3  10  526.95   32.10
   4  -3 -10  435.26   38.40
  -4  -3  10  447.96   37.30
   4  -3 -10  533.75   39.40
   4   3  10  488.15   26.00
  -4   3 -10  454.75   31.40
  -4   3 -10  502.85   43.80
   5  -3  10   67.69   24.60
  -5   3  10   30.40   20.00
   5   3 -10   45.20   20.70
  -5  -3 -10   29.80   21.00
  -5  -3 -10   45.90   16.90
  -5   3  10   50.19   20.00
   5  -3 -10   43.10   20.80
  -5   3 -10   55.09   29.20
  -5  -3  10   23.30   22.70
   6   3 -10  177.98   32.10
  -6   3  10  229.88   33.70
  -6   3  10  144.19   36.20
  -6  -3 -10  162.28   31.90
   6  -3  10  179.38   36.00
  -6   3  10  220.88   33.70
  -6  -3  10  133.09   34.20
  -6   3 -10  225.28   38.20
   0   4 -10   20.90   14.10
   0  -4 -10   15.70   15.40
   0   4 -10   29.80   16.90
   0  -4  10   41.10   14.40
   0  -4 -10    6.10   11.90
  -1  -4 -10   40.70   14.90
   1  -4  10   53.09   15.00
   1   4 -10   28.80   16.50
  -1  -4 -10   47.40   15.90
   1   4 -10   71.29   16.00
  -1   4 -10  100.69   32.60
  -1  -4  10   56.29   16.10
   1  -4 -10   76.19   19.40
  -1   4 -10   66.09   18.10
   1  -4 -10   56.99   19.10
   2   4 -10   85.09   14.80
  -2  -4 -10   68.49   18.50
  -2  -4 -10   76.49    8.60
   2  -4  10  112.09   19.10
  -2  -4 -10   83.69   16.60
   2   4 -10   71.39   20.30
  -2   4  10   86.39    9.30
  -2   4  10   56.39   11.10
  -2  -4 -10   73.59    7.50
  -2  -4  10   73.89   18.20
   2  -4 -10   98.39   21.40
  -2   4 -10   78.69   22.90
  -2   4 -10  112.49   21.20
   2  -4 -10   96.29   23.20
  -3  -4 -10  136.09   26.00
  -3  -4 -10  121.99   14.20
   3   4 -10  130.79   24.70
   3  -4  10  150.98   22.70
   3   4 -10  107.39   12.10
  -3   4  10  141.69   16.10
   3   4  10  113.59   17.60
  -3  -4  10  125.19   23.90
  -3   4 -10  144.99   30.20
   3  -4 -10  149.59   27.60
  -3   4 -10   92.49   19.30
   3  -4 -10  148.19   27.80
   4   4 -10   76.79   21.90
   4  -4  10   59.39   22.10
  -4  -4 -10   74.19   21.90
  -4   4  10   78.79   17.50
  -4  -4 -10   87.49   16.50
   4   4  10   90.09   14.40
   4  -4 -10   72.29   24.60
  -4  -4  10   55.89   23.00
  -4   4 -10   79.49   19.20
  -4   4 -10   76.89   24.60
   4  -4 -10  116.99   25.40
   5   4 -10   71.99   23.80
  -5   4  10   90.69   25.40
  -5   4  10   44.00   19.80
  -5  -4 -10   67.49   19.30
  -5  -4 -10   96.49   23.50
   5  -4  10   42.00   24.80
  -5   4  10   69.89   23.80
  -5   4 -10   53.19   26.10
   5  -4 -10   49.70   22.60
   6  -4  10   70.99   28.70
  -6   4  10   -4.30   23.40
  -6   4  10    4.30   21.50
  -6  -4 -10   16.60   22.40
  -6  -4 -10   31.50   22.00
  -6   4  10  -25.20   23.30
  -6  -4  10   52.49   29.70
  -6   4 -10   18.50   28.00
   0  -5 -10   53.39   18.70
   0  -5 -10   70.29   18.50
   0  -5  10   43.50   16.20
   0   5 -10   57.79   16.90
   0   5 -10   65.89   21.30
  -1  -5 -10  563.14   41.30
   1   5 -10  613.44   35.40
   1  -5  10  614.84   38.40
  -1  -5 -10  560.64   37.00
   1   5 -10  578.24   41.40
   1  -5 -10  596.84   40.40
  -1   5 -10  586.44   40.90
  -1  -5  10  600.74   38.60
   1  -5 -10  636.34   43.00
  -1   5 -10  591.04   39.90
  -2  -5 -10   16.30   13.00
   2   5 -10   47.60   19.30
  -2  -5 -10   25.90   15.50
  -2  -5 -10   24.30    7.10
  -2   5  10   18.80    7.60
   2  -5  10   40.10   17.40
   2   5 -10   17.00   10.90
  -2   5 -10    9.10   17.00
   2  -5 -10    2.60   15.50
  -2   5 -10   26.10   16.90
  -2  -5  10   13.30   15.50
   2  -5 -10   47.60   19.20
   2   5  10   37.00   15.30
   3  -5  10  505.35   38.30
   3   5 -10  514.95   39.50
  -3  -5 -10  477.15   39.70
  -3  -5 -10  499.65   27.70
  -3   5  10  490.05   28.40
  -3   5 -10  454.45   43.10
  -3  -5  10  474.25   38.60
   3  -5 -10  469.65   40.90
  -3   5 -10  474.75   35.30
   3  -5 -10  441.66   39.50
   3   5  10  507.45   31.60
  -4   5  10   49.20   25.70
   4   5 -10   29.30   20.00
  -4  -5 -10   28.90   13.90
   4  -5  10   50.69   22.10
  -4  -5 -10   59.79   21.10
  -4   5  10   57.69   21.80
   4  -5 -10   39.80   23.40
   4   5  10    9.70   10.10
   4  -5 -10   38.00   21.40
  -4  -5  10   41.30   22.90
  -4   5 -10   32.80   16.40
  -5   5  10  199.38   53.89
  -5   5  10  264.17   30.30
   5  -5  10  206.18   36.10
  -5  -5 -10  219.08   28.40
  -5   5  10  149.69   28.00
   5   5 -10  167.68   31.60
  -5   5 -10  182.58   25.40
  -5   5 -10  279.07   43.60
  -5  -5  10  242.38   39.40
  -6  -5 -10   18.00   22.50
   6  -5  10  -10.50   26.20
  -6   5  10  -12.00   23.40
  -6   5  10   27.50   23.20
  -6   5  10   22.90   25.90
  -6  -5  10   12.30   27.30
   0  -6 -10   39.60   16.80
   0  -6  10   39.40   19.90
   0  -6 -10   42.40   17.30
   0   6  10   26.30   15.10
   0   6 -10   38.50   18.90
   1  -6  10   53.29   20.10
  -1  -6 -10  130.59   26.10
  -1   6  10   93.99   21.60
   1   6 -10  113.59   19.70
   1   6 -10   75.19   23.40
  -1  -6  10  132.19   26.30
   1  -6 -10  161.28   27.60
  -1   6 -10  106.69   23.60
   1   6  10  183.18   27.20
  -1   6 -10  122.19   24.60
   1  -6 -10  127.79   23.90
  -2  -6 -10  150.78   13.50
  -2   6  10  165.98   27.50
   2  -6  10  160.78   26.60
   2   6 -10  128.49   26.70
  -2  -6 -10  165.88   28.90
   2   6 -10  147.89   18.10
   2   6  10  187.78   26.50
  -2   6 -10  161.28   30.70
   2  -6 -10  153.28   27.80
  -2   6 -10  156.98   26.70
   2  -6 -10  108.19   27.70
  -2  -6  10  194.38   31.50
   3   6 -10   53.89   23.30
  -3  -6 -10   56.19   20.80
  -3   6  10   29.10   12.50
  -3   6  10   56.59   20.00
  -3  -6 -10   30.00   12.60
   3  -6  10   50.29   23.20
   3  -6 -10   36.80   24.90
  -3   6 -10   53.49   21.40
   3   6  10   78.09   16.20
  -3   6 -10   46.20   24.20
  -3  -6  10   32.80   21.70
  -4  -6 -10  103.99   26.60
  -4  -6 -10  101.89   24.80
  -4   6  10   82.99   19.60
   4  -6  10   76.49   32.00
  -4   6  10   99.19   26.30
   4   6 -10  103.39   26.20
   4   6  10   96.09   16.90
  -4   6 -10   53.79   23.10
  -4   6 -10   95.19   28.40
   5  -6  10   17.80   23.30
  -5   6  10   78.09   31.00
  -5   6  10   81.89   27.50
  -5  -6 -10   55.09   23.50
  -5   6  10   48.00   22.50
   5   6 -10   50.19   25.70
  -5   6 -10   65.79   30.70
  -5   6 -10   53.69   24.90
  -5  -6  10   10.80   26.90
   0  -7  10   39.70   20.30
   0   7 -10   16.40   16.60
   0  -7 -10    9.80   16.80
   0   7  10   13.10   16.90
   0   7 -10   27.50   18.10
  -1  -7 -10  124.89   26.00
  -1   7  10  158.18   29.50
   1   7 -10  178.78   24.40
   1  -7  10  158.98   29.10
   1   7 -10  146.89   28.60
   1   7  10  159.48   26.80
  -1   7 -10  167.78   28.90
   1  -7 -10  136.19   16.00
   1  -7 -10  152.58   31.20
  -1  -7  10  193.98   31.50
  -1   7 -10  152.08   30.40
   2   7 -10   13.50   13.00
   2  -7  10   21.10   23.10
   2   7 -10   16.60   20.10
  -2  -7 -10   33.60   20.60
  -2   7  10  -14.50   14.70
   2  -7 -10   24.30   10.80
   2   7  10   -8.50   12.80
  -2   7 -10   13.60   23.20
  -2  -7  10   20.50   21.00
   2  -7 -10   44.60   23.50
  -2   7 -10    5.50   19.70
   3   7 -10   93.89   28.00
   3  -7  10  142.49   31.10
  -3  -7 -10  136.69   26.90
  -3   7  10  127.69   27.40
   3  -7 -10  106.69   17.30
  -3  -7  10  147.19   32.70
  -3   7 -10  110.89   26.90
   3  -7 -10  101.19   32.30
   3   7  10  134.69   22.50
  -3   7 -10  133.89   32.10
  -4   7  10   -8.60   19.90
  -4   7  10  -21.30   16.10
   4   7 -10   75.99   27.90
   4  -7  10   43.60   26.40
  -4  -7 -10   -2.20   31.00
  -4   7 -10   35.40   25.60
  -4  -7  10   16.20   25.20
  -4   7 -10  -11.80   26.90
   4  -7 -10   30.80   27.00
  -5  -7 -10  113.29   27.70
  -5   7  10   40.20   25.00
   5  -7  10   74.69   29.30
   5   7 -10   63.59   29.40
  -5   7  10   59.39   30.60
  -5  -7  10   39.70   29.90
  -5   7 -10   90.09   49.90
  -5   7 -10    0.40   31.70
   0  -8 -10   42.60   22.80
   0   8 -10   57.79   21.30
   0  -8  10   42.00   25.50
   0   8  10   64.19   22.00
   0   8 -10   61.19   28.40
   1  -8  10   30.00   24.60
  -1  -8 -10   16.20   19.30
   1   8 -10   35.80   21.40
  -1  -8  10   61.79   26.60
  -1   8 -10   26.80   22.70
  -1   8 -10   75.49   41.30
   1   8  10   40.80   18.80
  -2   8  10   60.59   22.30
   2   8 -10   57.79   25.60
   2  -8 -10   86.49   30.80
   2   8  10   70.79   20.60
  -2   8 -10   46.60   29.50
   3   8 -10   64.89   25.10
  -3  -8 -10   32.30   20.40
   3  -8  10   34.40   25.90
  -3   8  10   38.60   24.20
   3   8  10   39.00   18.70
  -3  -8  10   48.10   28.60
   3  -8 -10   69.59   29.40
  -3   8 -10   39.20   27.10
  -3   8 -10    1.60   22.00
   4   8 -10   67.39   29.40
   4  -8  10   80.99   30.90
  -4  -8 -10   73.39   24.30
  -4   8  10  113.99   29.20
   4  -8 -10   89.29   31.70
  -4  -8  10   74.89   33.40
  -4   8 -10   57.89   31.50
  -4   8 -10   68.99   26.90
   0  -9 -10  332.47   41.50
   0   9  10  325.57   36.60
   0   9 -10  315.47   42.40
   0   9 -10  353.06   37.60
   0  -9  10  384.76   49.30
   1  -9  10   46.80   28.70
  -1  -9 -10   26.60   23.30
  -1   9  10   51.39   19.80
   1   9 -10   40.80   25.90
   1   9 -10   43.80   21.70
  -1  -9  10   48.00   28.40
   1  -9 -10   -5.50   23.20
  -1   9 -10   25.00   25.90
   1   9  10   -0.70   16.90
  -2  -9 -10  148.79   31.60
  -2   9  10  159.28   32.40
   2   9 -10  112.89   33.70
   2  -9  10  147.09   36.90
   2   9  10  179.08   29.20
  -2   9 -10  238.98   36.90
  -2  -9  10  154.58   36.00
  -2   9 -10  206.48   35.60
   2  -9 -10  156.78   36.10
   3  -9  10   32.10   29.20
  -3  -9 -10  -10.80   20.90
   3   9 -10  -23.80   22.90
  -3   9  10   48.20   21.00
   3   9  10   12.80   18.60
  -3  -9  10   16.50   27.90
  -3   9 -10   11.90   28.00
  -3   9 -10   -6.70   23.00
   3  -9 -10   30.50   26.00
   0 -10 -10  225.98   41.20
   0  10  10  180.48   32.70
   0  10 -10  160.68   34.40
   0 -10  10  125.09   36.30
  -1 -10 -10   36.00   25.20
   1  10 -10   60.69   28.10
   1 -10  10   60.29   28.80
  -1  10  10   20.30   22.90
  -1 -10  10   43.10   29.40
   1  10  10   10.10   19.00
  -1  10 -10   55.99   29.10
   1 -10 -10   69.69   31.80
  -1  10 -10   48.70   30.30
  -2  10  10  266.47   41.10
   2  10 -10  121.89   34.40
  -2 -10 -10  132.09   32.80
   2 -10  10  106.99   37.70
  -2 -10  10  173.18   42.60
   2  10  10  197.28   32.40
  -2  10 -10   95.99   33.90
  -2  10 -10  160.88   36.40
   2 -10 -10  153.38   36.50
   0  11  10  258.27   43.80
   0  11 -10  262.67   43.70
   0  11 -10  295.97   70.59
   0   0 -11    6.00   12.00
   0   0 -11   13.30   12.70
   1   0 -11   72.19   17.00
  -1   0 -11   68.49   17.10
  -1   0 -11   75.19   27.20
  -1   0  11   74.49    7.80
  -1   0  11   85.49    7.10
   2   0 -11    6.70   11.80
   2   0 -11    8.10   14.50
  -2   0 -11   32.60   13.70
  -2   0  11   20.60    9.30
  -2   0 -11   13.20   14.30
  -3   0 -11    9.70   11.50
  -3   0  11   31.20   12.70
   3   0 -11   25.90   13.80
  -3   0 -11    4.60    8.00
  -3   0 -11   11.60   17.90
   3   0 -11   31.30   15.80
  -4   0  11   70.79   18.40
  -4   0 -11   75.29   15.90
   4   0 -11   84.39   23.10
  -4   0 -11   63.89   14.90
   4   0 -11   67.99   17.50
  -4   0 -11   50.19   22.30
  -5   0  11   26.60   20.30
  -5   0 -11   49.60   17.10
   5   0 -11   23.60   21.70
  -6   0 -11    0.30   22.80
  -6   0  11    2.70   24.90
  -6   0 -11  -12.30   20.60
   0   1 -11   84.39    9.40
   0   1 -11   71.89   16.60
   0   1 -11   75.99   19.20
   0  -1 -11   94.79   19.40
   0  -1 -11  116.89   22.50
   0  -1  11   93.89   10.00
   1   1 -11  675.53   39.00
   1  -1  11  677.83   28.50
   1   1 -11  705.23   42.90
  -1  -1 -11  697.83   39.50
  -1  -1 -11  685.73   59.19
  -1   1 -11  651.13   46.80
   1  -1 -11  664.83   43.80
  -1  -1  11  657.53   30.00
  -1   1 -11  670.53   39.50
   1  -1 -11  606.74   39.50
  -2   1  11   31.20    8.60
  -2  -1 -11   35.40    8.40
   2   1 -11   48.10   17.40
   2   1 -11   49.20   14.80
   2  -1  11   38.70   10.80
  -2  -1 -11   34.90   19.70
  -2  -1 -11   32.50   12.60
  -2  -1 -11   31.40    5.90
  -2   1  11   20.80    7.50
  -2  -1  11   42.60   12.90
   2  -1 -11   59.79   18.90
  -2   1 -11   40.80   14.20
   2  -1 -11   27.00   15.00
  -2   1 -11   55.59   21.20
  -3  -1 -11  373.16   36.30
  -3   1  11  393.46   24.70
  -3  -1 -11  362.96   22.00
  -3  -1 -11  377.16   27.00
   3   1 -11  367.26   27.10
   3  -1  11  378.06   26.00
   3   1 -11  389.36   32.90
  -3   1 -11  458.75   29.50
   3  -1 -11  413.56   33.90
  -3   1 -11  321.87   34.30
   3  -1 -11  401.56   30.80
  -3  -1  11  413.96   28.70
   4   1 -11   53.29   20.00
  -4  -1 -11   46.40   23.00
   4  -1  11   62.29   19.70
  -4  -1 -11   51.09   13.70
  -4   1  11   45.90   14.90
   4   1 -11   35.20   13.40
  -4  -1 -11   48.00   13.30
   4  -1 -11  112.69   22.10
  -4   1 -11   76.09   26.90
  -4   1 -11   99.69   16.80
  -4  -1  11  127.09   21.60
   4  -1 -11   74.69   22.60
   5   1 -11  157.78   29.40
  -5  -1 -11  220.88   26.00
  -5   1  11  241.58   26.60
  -5   1  11  252.17   30.20
  -5   1 -11  261.47   30.10
  -5   1 -11  253.87   40.90
  -5  -1  11  290.37   33.80
   5  -1 -11  333.27   34.00
  -6  -1 -11   48.80   26.20
  -6   1  11   53.99   22.20
   6  -1 -11   55.89   24.20
  -6   1 -11   51.59   21.60
  -6  -1  11   87.79   28.30
  -6   1 -11   23.30   27.60
   0  -2 -11   67.89   24.70
   0   2 -11   78.79   18.40
   0   2 -11   57.19   23.10
   1   2 -11  786.62   43.40
  -1  -2 -11  838.62   44.30
  -1  -2 -11  770.62   46.40
   1  -2  11  808.92   36.90
   1   2 -11  813.02   46.40
   1  -2 -11  823.22   49.60
   1  -2 -11  862.21   47.60
  -1   2 -11  773.32   45.10
  -1  -2  11  876.21   38.80
   2   2 -11  113.29   17.60
  -2  -2 -11  126.09   19.10
   2   2 -11  140.19   25.10
   2  -2  11  122.69   16.80
  -2   2  11  111.19   13.60
  -2  -2 -11  111.89   22.40
  -2   2  11   96.39    8.60
  -2  -2  11  124.19   17.70
   2  -2 -11   79.69   20.40
  -2   2 -11  123.89   24.10
   2  -2 -11  133.89   25.10
  -2   2 -11  121.19   20.60
  -3  -2 -11  784.02   47.60
  -3   2  11  696.73   33.70
   3  -2  11  688.73   38.50
  -3  -2 -11  739.83   38.40
   3   2 -11  706.43   36.70
   3   2 -11  710.43   45.30
  -3   2 -11  708.73   40.10
  -3   2 -11  715.93   49.50
  -3  -2  11  666.83   40.00
   3  -2 -11  683.73   44.50
   3  -2 -11  734.93   48.70
   4  -2  11   33.50   17.40
  -4   2  11   29.80   13.80
  -4  -2 -11   69.09   22.70
  -4  -2 -11   55.79   13.30
   4   2 -11   46.60   20.00
  -4  -2 -11   53.49   13.90
   4  -2 -11   48.90   19.50
  -4   2 -11   31.40   22.00
   4  -2 -11   10.10   18.80
  -4  -2  11   34.20   18.10
  -4   2 -11   77.79   17.50
  -5  -2 -11  305.07   30.00
   5  -2  11  331.87   37.80
   5   2 -11  342.37   36.70
  -5   2  11  314.27   30.10
  -5   2 -11  336.17   45.30
   5  -2 -11  377.06   38.60
  -5  -2  11  367.76   39.40
   5  -2 -11  335.17   35.60
  -6  -2 -11   37.80   24.40
  -6   2  11   66.19   23.40
   6  -2 -11   25.70   23.40
  -6   2 -11   46.20   23.40
  -6   2 -11   59.39   29.00
  -6  -2  11   35.10   28.40
   0  -3  11  109.79   16.60
   0   3 -11  123.59   20.90
   0   3 -11   94.99   21.00
   0  -3 -11   90.09   18.80
   0  -3 -11  136.59   23.30
   1  -3  11  228.98   20.30
   1   3 -11  200.98   28.90
   1   3 -11  240.68   24.40
  -1  -3 -11  261.77   29.00
  -1   3 -11  197.28   24.70
   1  -3 -11  197.48   28.60
   1  -3 -11  215.38   29.50
  -1  -3  11  248.08   21.70
  -1   3 -11  231.98   27.30
   2   3 -11  170.98   27.80
  -2  -3 -11  156.18   21.40
   2  -3  11  177.18   20.20
   2   3 -11  135.49   18.80
  -2  -3 -11  149.99   26.50
  -2   3 -11  116.59   25.70
  -2  -3  11   84.49   18.70
  -2   3 -11  135.49   22.70
   2  -3 -11  124.79   23.60
   2  -3 -11   96.49   23.80
  -3  -3 -11   37.00    9.20
  -3  -3 -11   42.40   18.80
   3   3 -11   28.60   20.60
   3  -3  11   58.09   18.00
  -3  -3 -11   34.30   13.90
   3   3 -11   35.60   12.20
  -3   3  11   50.69   11.10
   3  -3 -11   35.40   17.90
   3  -3 -11   41.30   19.50
  -3   3 -11   37.00   16.90
  -3   3 -11   46.70   21.60
  -4   3  11   70.19   16.00
   4   3 -11   90.29   24.90
   4  -3  11   83.09   22.80
  -4  -3 -11   89.29   26.10
  -4  -3 -11  100.29   16.20
   4  -3 -11   90.99   24.40
  -4  -3  11   87.59   21.30
   4  -3 -11   61.09   24.30
  -4   3 -11   52.69   30.20
   4   3  11   65.09   13.40
  -4   3 -11   48.60   23.90
  -5  -3 -11  135.99   23.20
   5  -3  11  160.78   31.20
  -5   3  11   96.99   22.50
   5   3 -11  146.29   27.40
  -5  -3 -11  104.59   35.30
   5  -3 -11  112.79   29.40
   5  -3 -11  125.69   38.80
  -5  -3  11  117.59   29.50
  -5   3 -11   80.89   30.70
   6  -3  11   87.09   29.30
  -6   3  11   -2.00   23.20
  -6  -3 -11   34.00   24.50
  -6   3  11   15.70   22.00
   6   3 -11   10.20   30.70
  -6  -3  11   16.90   26.70
  -6   3 -11  -15.20   26.50
   0  -4 -11  523.55   38.50
   0  -4 -11  478.05   35.20
   0   4 -11  544.55   38.40
   0  -4  11  487.65   33.80
   0   4 -11  528.85   37.40
   1  -4  11  192.28   22.90
   1   4 -11  196.08   21.60
   1   4 -11  244.78   31.50
  -1  -4 -11  215.48   23.30
  -1  -4 -11  193.48   28.10
   1  -4 -11  177.68   27.50
  -1   4 -11  185.68   28.30
   1  -4 -11  211.08   30.50
  -1   4 -11  210.78   26.50
  -1  -4  11  182.18   22.10
  -2  -4 -11  529.55   34.70
   2   4 -11  545.55   41.10
   2  -4  11  495.65   34.10
  -2  -4 -11  500.65   40.30
   2   4 -11  562.64   32.50
  -2   4 -11  556.04   43.10
   2  -4 -11  594.34   41.40
  -2   4 -11  521.85   38.00
   2  -4 -11  535.75   40.20
  -2  -4  11  507.15   35.50
   3   4 -11  146.19   16.20
   3  -4  11  204.48   27.90
  -3  -4 -11  187.58   15.80
  -3  -4 -11  196.48   32.70
  -3  -4 -11  201.98   22.10
  -3   4  11  184.88   16.20
   3   4 -11  199.88   31.40
  -3   4 -11  177.78   26.30
   3  -4 -11  202.38   32.50
  -3   4 -11  207.68   35.50
   3  -4 -11  170.18   28.70
  -3  -4  11  208.88   28.20
  -4  -4 -11  442.76   39.60
   4  -4  11  367.46   36.30
  -4   4  11  399.76   29.00
  -4  -4 -11  375.36   27.40
   4   4 -11  444.46   38.70
  -4   4 -11  458.75   34.40
   4   4  11  436.76   26.70
   4  -4 -11  398.16   41.20
  -4  -4  11  370.06   39.30
   4  -4 -11  442.86   40.50
  -5   4  11   79.89   22.00
   5   4 -11   42.60   26.10
  -5  -4 -11   43.60   21.90
  -5  -4 -11   86.89   27.00
   5  -4  11   41.00   29.30
  -5  -4  11   49.10   25.80
   5  -4 -11   73.99   29.60
   5  -4 -11   22.70   24.30
  -5   4 -11   74.69   31.80
  -6  -4 -11  186.48   33.20
  -6   4  11   75.59   27.40
  -6   4  11  107.09   38.50
   6  -4  11  166.18   33.10
  -6  -4  11  233.98   39.30
   0   5 -11   48.20   20.40
   0  -5 -11   46.80   19.50
   0   5 -11   23.40   17.00
   0  -5 -11   46.30   18.60
   0  -5  11   27.80   16.60
  -1  -5 -11  245.88   30.20
  -1  -5 -11  184.18   29.60
   1   5 -11  233.68   24.90
   1   5 -11  235.58   32.00
  -1   5 -11  264.47   29.30
   1  -5 -11  220.38   30.10
  -1  -5  11  201.88   36.20
  -1   5 -11  247.18   33.30
   1  -5 -11  246.28   29.10
  -2  -5 -11   41.90   14.50
   2   5 -11  -10.60   19.30
   2   5 -11   43.30   13.30
  -2  -5 -11   25.70   17.30
   2  -5  11   22.30   16.40
   2  -5 -11   58.19   19.90
   2  -5 -11  109.49   25.70
  -2   5 -11   92.59   21.30
  -2   5 -11   75.29   24.60
  -2  -5  11   85.49   21.10
  -3  -5 -11   76.09   23.90
   3  -5  11   42.50   19.10
  -3   5  11   66.29   11.80
   3   5 -11   64.79   22.70
   3  -5 -11   54.39   23.60
  -3  -5  11   79.19   25.20
  -3   5 -11  106.69   31.20
  -3   5 -11   80.79   21.50
   3  -5 -11   72.99   26.20
   3   5  11   94.89   18.30
   4   5 -11    1.40   19.80
  -4   5  11    4.00   13.90
   4  -5  11    1.70   23.20
  -4  -5 -11  -13.30   16.60
  -4  -5  11   40.30   26.50
  -4   5 -11   -5.60   19.40
   4  -5 -11   17.00   23.60
   4  -5 -11   37.70   30.80
  -4   5 -11    3.20   23.40
   4   5  11    6.90   13.30
  -5   5  11   56.39   27.30
  -5   5  11   81.99   27.90
   5  -5  11   64.69   29.50
  -5   5  11   85.59   30.50
  -5  -5 -11   96.19   26.80
   5   5 -11   34.10   26.40
   5  -5 -11   25.30   29.20
  -5   5 -11   94.99   33.90
  -5  -5  11   19.00   29.70
   0   6 -11  791.12   48.10
   0   6 -11  778.52   51.49
   0  -6 -11  813.82   49.90
   0  -6  11  825.42   49.20
   0  -6 -11  780.32   52.39
   1  -6  11  213.08   29.70
   1   6 -11  184.48   31.60
   1   6 -11  192.68   24.30
  -1  -6 -11  194.88   32.90
   1   6  11  172.18   26.20
   1  -6 -11  178.48   28.00
  -1   6 -11  176.48   29.80
  -1   6 -11  184.68   29.20
   1  -6 -11  142.49   28.50
  -1  -6  11  157.18   26.00
   2   6 -11  406.96   40.40
   2   6 -11  431.06   28.70
   2  -6  11  403.86   36.60
  -2  -6 -11  511.65   42.60
  -2   6 -11  366.16   37.70
  -2   6 -11  408.86   41.60
   2  -6 -11  410.46   39.10
  -2  -6  11  457.35   40.00
   2  -6 -11  427.86   41.60
   2   6  11  457.65   33.70
  -3  -6 -11  113.29   25.30
   3   6 -11  112.79   29.20
   3  -6  11  118.39   29.30
  -3  -6  11  127.59   31.30
   3   6  11  159.78   23.80
  -3   6 -11  153.38   29.40
   3  -6 -11  102.79   30.70
   4  -6  11  180.28   33.70
  -4   6  11  221.38   34.40
   4   6 -11  150.48   33.20
  -4  -6 -11  231.88   35.10
   4  -6 -11  254.27   39.30
  -4   6 -11  212.78   32.00
  -4   6 -11  222.18   40.60
  -4  -6  11  272.07   40.90
   5   6 -11   93.59   31.40
   5  -6  11  114.29   30.10
  -5   6  11   62.79   29.80
  -5  -6 -11  138.09   31.50
  -5   6  11  115.89   26.60
  -5  -6  11  139.79   35.70
  -5   6 -11   73.99   33.60
   0  -7  11   40.20   23.60
   0   7  11   14.00   16.50
   0  -7 -11    9.00   17.30
   0   7 -11   15.00   19.50
   0   7 -11   31.60   21.00
  -1  -7 -11  167.58   31.30
   1   7 -11   94.29   28.70
  -1   7  11  196.38   32.30
   1  -7  11  175.68   31.10
  -1   7 -11  169.58   31.20
  -1  -7  11   67.89   26.50
   1  -7 -11  210.38   35.20
   1   7  11  186.68   29.10
  -1   7 -11  131.59   29.10
  -2   7  11   14.40   20.60
  -2  -7 -11   29.50   20.70
   2  -7  11   35.20   24.40
  -2   7 -11   32.10   23.10
   2  -7 -11   19.00   37.90
   2   7  11   18.20   16.10
  -2  -7  11   21.50   21.70
  -2   7 -11   26.00   22.60
   3   7 -11   88.09   28.80
  -3  -7 -11   76.79   25.00
  -3   7  11   85.99   26.70
  -3  -7  11   54.49   28.10
  -3   7 -11   44.00   28.20
   3   7  11   74.89   19.60
   3  -7 -11   67.29   29.30
  -4  -7 -11   37.70   22.70
   4   7 -11   10.70   24.50
   4  -7  11  -29.00   24.80
  -4   7  11   48.30   23.40
   4  -7 -11    6.60   27.10
  -4   7 -11   35.40   28.10
  -4  -7  11   39.80   30.00
  -4   7 -11   -5.20   22.00
   0   8  11   73.59   24.00
   0  -8  11   45.50   25.60
   0  -8 -11   70.49   26.30
   0   8 -11   28.40   22.40
   0   8 -11   47.50   24.90
   1   8 -11   42.30   19.00
  -1  -8 -11   26.10   21.00
   1   8 -11   -4.20   23.00
   1  -8  11   22.70   32.50
  -1   8  11   27.20   21.30
  -1   8 -11   -5.50   20.80
  -1  -8  11   31.70   33.10
   1  -8 -11   -3.00   22.80
  -1   8 -11   -3.80   20.90
   2   8 -11   78.89   29.10
  -2   8  11  129.59   31.00
   2  -8  11   69.99   27.00
  -2  -8 -11   80.89   25.50
   2   8  11   67.19   26.70
  -2  -8  11   61.29   28.60
  -2   8 -11   82.79   28.90
  -2   8 -11   75.29   26.50
   2  -8 -11   49.50   28.60
  -3   8  11    2.40   20.80
  -3  -8 -11   25.20   23.70
   3  -8  11   26.00   28.70
   3   8 -11   -5.80   23.40
  -3   8 -11   43.60   26.60
  -3   8 -11   51.79   28.20
   3   8  11   34.60   19.00
   3  -8 -11   15.10   26.40
  -3  -8  11  102.69   33.10
  -4   8  11   33.80   27.00
  -4  -8 -11   57.89   24.70
   4  -8  11   20.10   29.40
   4   8 -11   71.59   30.60
  -4  -8  11   70.09   31.60
  -4   8 -11   37.90   27.20
   4  -8 -11   53.89   32.60
   0   9 -11   46.10   27.40
   0   9  11   -5.00   19.40
   0  -9  11   34.40   27.00
   0  -9 -11   25.00   24.00
   0   9 -11   50.19   26.30
   1   9 -11    6.60   24.60
   1  -9  11   86.19   31.40
  -1   9  11   17.80   21.70
   1   9 -11   71.39   35.90
  -1  -9 -11    2.00   21.80
  -1   9 -11   14.90   26.90
   1   9  11    6.20   17.40
  -1   9 -11   42.60   25.00
  -1  -9  11   47.80   28.70
   1  -9 -11   -5.50   19.90
  -2   9  11   33.70   22.40
  -2  -9 -11   -6.00   21.70
   2   9 -11   20.20   26.80
   2  -9  11   42.60   29.90
   2  -9 -11   42.00   30.70
  -2  -9  11   49.30   28.50
  -2   9 -11   41.50   25.40
   2   9  11    5.60   18.70
  -2   9 -11   34.00   25.20
  -3   9  11   94.49   35.30
   3  -9  11  132.39   34.00
   3   9 -11   80.49   30.10
  -3  -9 -11   68.49   27.70
  -3  -9  11  135.39   36.50
   3   9  11   70.79   23.40
  -3   9 -11  117.09   34.90
  -3   9 -11   50.09   27.30
   3  -9 -11   76.59   43.30
   0 -10  11  143.19   36.20
   0  10  11  147.89   33.40
   0  10 -11  151.18   34.00
   0 -10 -11  110.09   33.60
   0  10 -11   98.59   31.90
   1 -10  11   35.90   30.60
  -1 -10 -11   78.39   29.30
   1  10 -11   66.29   34.30
  -1  10  11   88.49   29.60
  -1  10 -11   43.90   29.50
  -1  10 -11   91.69   32.20
   1 -10 -11   49.99   33.90
  -1 -10  11  105.19   32.50
   1  10  11   96.39   27.80
  -2  10  11  146.69   34.20
  -2 -10 -11   83.49   32.60
   2  10 -11  159.68   51.69
   2 -10 -11   39.00   33.50
  -2  10 -11  125.79   36.80
   2  10  11   90.19   26.60
  -2  10 -11   94.29   50.89
   0   0 -12 1796.52   80.89
   0   0 -12 1964.10   83.49
   1   0 -12  -12.20   13.00
  -1   0 -12   16.50   17.30
  -1   0 -12   34.00   14.90
   1   0 -12    6.10   13.30
  -2   0 -12  855.81   33.70
   2   0 -12  930.61   51.59
   2   0 -12  930.11   49.40
  -2   0 -12  906.61   52.99
  -2   0  12  926.31   37.70
  -3   0 -12   -5.90    8.10
  -3   0 -12    9.50   19.80
  -3   0  12    1.30   11.60
   3   0 -12   16.70   14.60
  -3   0 -12   -3.00   12.60
   3   0 -12   -4.40   15.00
  -4   0  12  582.94   41.90
  -4   0 -12  584.14   48.40
   4   0 -12  514.25   35.30
  -4   0 -12  666.53   36.20
  -4   0 -12  573.44   33.20
   4   0 -12  571.64   44.40
   5   0 -12  -14.60   22.00
  -5   0 -12   18.40   16.80
  -5   0 -12  -37.00   21.50
  -5   0  12  -16.30   18.50
  -6   0  12  479.55   45.00
  -6   0 -12  454.15   47.60
   6   0 -12  472.55   44.20
  -6   0 -12  389.06   42.60
   0  -1 -12    2.50   14.10
   0  -1 -12   11.20   12.30
   0   1 -12   16.30   15.60
   0  -1  12   15.00    6.20
  -1  -1 -12   63.49   19.80
   1  -1  12   47.90    7.60
   1   1 -12   55.39   17.40
   1   1 -12   50.09   17.00
  -1  -1 -12   52.49   16.60
   1  -1 -12   37.00   16.10
   1  -1 -12   63.89   19.60
  -1  -1  12   30.30    9.20
  -1   1 -12   45.90   18.20
  -1   1 -12   29.30    9.90
  -1   1 -12   64.99   18.40
   2   1 -12    4.00   15.50
  -2  -1 -12   18.10   16.50
  -2   1  12   12.80    6.00
   2   1 -12   17.00   13.80
  -2  -1  12   26.10   11.30
   2  -1 -12    5.00   16.20
  -2   1 -12   51.89   16.40
  -2   1 -12   -1.90   17.10
   2  -1 -12    2.50   19.80
   3   1 -12   74.39   21.90
  -3  -1 -12   68.09   22.10
  -3  -1 -12   82.39   17.80
   3   1 -12   60.79   17.10
   3  -1  12   78.19   16.50
  -3   1  12   77.29   13.80
   3  -1 -12   64.69   21.40
   3  -1 -12   55.59   19.40
  -3  -1  12   54.09   15.20
  -3   1 -12   91.19   26.10
   4   1 -12   41.00   15.80
  -4   1  12   51.49   16.20
  -4  -1 -12   40.20   13.40
   4   1 -12   25.10   19.40
  -4  -1 -12   32.80   19.80
  -4  -1 -12   36.20   12.50
   4  -1 -12   53.59   19.90
  -4  -1  12   65.59   19.30
  -4   1 -12   42.00   26.20
  -4   1 -12   60.39   17.20
   4  -1 -12    2.40   20.10
  -5  -1 -12   47.60   17.50
  -5   1  12   35.20   19.50
  -5  -1 -12   47.40   25.70
   5   1 -12  -12.20   23.40
  -5   1 -12   34.70   17.30
  -5  -1  12   -1.60   21.20
  -5   1 -12   19.70   26.90
  -6  -1 -12   27.60   25.40
   6   1 -12   15.90   27.20
  -6   1  12   44.40   26.90
  -6  -1  12   15.10   28.70
  -6   1 -12   90.19   28.80
  -6   1 -12   35.00   24.00
   6  -1 -12   44.40   27.50
   0  -2 -12   38.70   16.70
   0   2 -12   20.30   15.90
   0  -2 -12   45.80   18.50
  -1  -2 -12  303.17   31.80
   1   2 -12  218.78   24.10
  -1  -2 -12  274.67   26.90
   1  -2  12  233.28   18.80
   1   2 -12  185.38   28.20
  -1   2 -12  258.87   30.10
   1  -2 -12  254.57   28.40
  -1  -2  12  246.98   19.90
  -1   2 -12  244.18   26.80
   1  -2 -12  254.07   28.70
   2  -2  12    9.90   11.10
  -2  -2 -12   18.20   17.60
   2   2 -12   21.80   19.10
   2   2 -12   18.80   13.10
  -2  -2 -12   15.90   14.90
   2  -2 -12   27.00   16.70
  -2   2 -12   25.50   20.80
  -2   2 -12   16.50   16.00
  -2  -2  12   31.10   14.30
   2  -2 -12   27.80   17.40
   3   2 -12  219.18   22.40
  -3  -2 -12  246.28   31.30
  -3  -2 -12  231.88   15.90
   3   2 -12  249.28   34.20
  -3  -2 -12  244.38   23.90
   3  -2  12  286.67   24.30
   3  -2 -12  206.38   28.40
  -3   2 -12  233.48   36.90
  -3   2 -12  262.57   26.70
   3  -2 -12  271.07   34.70
  -3  -2  12  217.08   24.60
  -4  -2 -12   28.20   14.10
   4   2 -12   33.20   19.40
  -4  -2 -12   42.50   13.90
  -4   2  12   26.20   14.10
  -4  -2 -12   52.99   24.40
   4  -2  12    3.30   16.30
  -4   2 -12   -9.20   32.90
  -4   2 -12    0.50   15.50
   4  -2 -12   12.20   17.70
   4  -2 -12    4.20   19.50
  -4  -2  12    5.10   16.00
  -5   2  12  133.69   22.80
  -5  -2 -12  176.48   32.10
  -5  -2 -12  134.59   30.20
   5  -2  12  159.18   28.20
  -5   2 -12  214.08   38.10
   5  -2 -12  113.89   28.20
   5  -2 -12  166.38   32.40
  -5   2 -12  125.59   24.80
  -5  -2  12  160.78   30.90
  -6  -2 -12   -0.50   23.50
   6   2 -12  -20.40   29.00
  -6   2  12   17.90   29.60
  -6  -2  12   45.90   28.00
  -6   2 -12    8.10   24.00
   6  -2 -12  -29.50   25.40
  -6   2 -12    6.50   31.70
   0  -3  12   77.89   16.10
   0   3 -12   60.19   19.50
   0   3 -12   53.39   19.10
   0  -3 -12   63.39   18.10
   0  -3 -12   76.99   20.50
   1  -3  12  102.59   17.50
  -1  -3 -12   72.29   22.90
   1   3 -12   74.19   21.70
  -1  -3 -12  112.19   19.90
   1   3 -12  105.39   19.60
  -1   3 -12  107.09   23.20
   1  -3 -12  127.79   25.90
   1  -3 -12   92.19   22.70
  -1  -3  12   87.49   18.00
  -1   3 -12  108.39   24.40
   2  -3  12   35.20   13.80
  -2  -3 -12   41.80   13.40
   2   3 -12   25.70   13.80
  -2  -3 -12   23.70   16.60
   2   3 -12   36.30   20.20
   2  -3 -12   57.99   19.70
  -2   3 -12   41.10   17.90
   2  -3 -12   22.80   18.40
  -2   3 -12   44.80   22.00
  -2  -3  12   34.00   15.50
  -3  -3 -12   60.69   21.50
  -3   3  12   49.50   14.90
   3   3 -12   42.20   13.00
   3   3 -12   81.09   25.00
  -3  -3 -12   52.49   21.10
  -3  -3  12   25.10   17.20
  -3   3 -12   67.89   20.40
   3  -3 -12   28.10   20.40
   3  -3 -12   52.99   19.60
  -3   3 -12   76.09   27.70
  -4  -3 -12   32.30   21.80
   4   3 -12   51.69   24.00
  -4   3  12   59.59   15.80
   4  -3  12   19.70   17.00
   4  -3 -12   15.90   22.30
  -4   3 -12   -4.20   15.80
   4  -3 -12    1.80   20.20
  -4  -3  12   12.10   19.20
  -4   3 -12    9.70   24.50
  -5  -3 -12   39.60   24.40
   5   3 -12   40.90   24.40
   5  -3  12  -18.20   23.50
  -5   3  12   -1.40   19.30
   5  -3 -12   64.99   26.80
  -5  -3  12  -21.90   38.70
  -5   3 -12   15.10   27.00
   5  -3 -12   33.10   24.70
   0  -4 -12    6.30   16.10
   0   4 -12    5.20   16.20
   0  -4  12   31.20   15.10
   0   4 -12   -0.30   14.20
   0  -4 -12   20.10   16.50
  -1  -4 -12 1005.20   58.29
   1  -4  12 1027.10   49.10
  -1  -4 -12  939.51   52.79
   1   4 -12  988.50   50.49
   1   4 -12  955.70   56.69
   1  -4 -12  940.51   57.39
  -1   4 -12  915.81   54.09
   1  -4 -12  960.60   55.09
  -1   4 -12  986.00   56.39
  -1  -4  12 1001.00   50.09
   2   4 -12   14.50   20.20
  -2  -4 -12   13.80   14.00
   2  -4  12   29.50   17.20
   2   4 -12   20.40   14.00
  -2  -4 -12   15.50   18.10
  -2   4 -12   21.30   16.10
   2  -4 -12   59.69   20.40
  -2   4 -12   43.60   24.00
   2  -4 -12   36.50   19.10
   3  -4  12  708.73   44.00
  -3  -4 -12  651.23   50.49
  -3  -4 -12  724.63   41.00
   3   4 -12  736.93   51.39
  -3  -4  12  646.44   46.10
   3  -4 -12  738.23   51.09
   3  -4 -12  752.12   52.19
  -3   4 -12  736.83   45.40
  -3   4 -12  747.83   55.19
  -4  -4 -12   26.30   32.60
   4  -4  12    6.60   21.00
   4   4 -12   67.49   26.40
   4   4  12   24.30   13.10
  -4   4 -12   21.80   19.30
   4  -4 -12   28.40   26.10
   4  -4 -12   -8.80   20.90
  -4  -4  12   50.59   23.90
  -4   4 -12   -4.80   24.50
  -5  -4 -12  213.98   36.80
   5  -4  12  201.18   36.10
   5   4 -12  196.08   34.70
   5  -4 -12  211.28   37.10
  -5  -4  12  208.58   35.90
  -5   4 -12  314.47   48.10
   5  -4 -12  231.48   37.50
   0  -5  12   20.00   17.70
   0   5 -12  -20.70   16.00
   0  -5 -12    1.20   17.80
   0  -5 -12   -6.10   16.80
   0   5 -12   -7.40   15.60
  -1  -5 -12   53.49   21.00
   1   5 -12   23.20   21.90
  -1  -5 -12   50.59   17.80
   1   5 -12   48.50   17.60
   1  -5  12   13.60   17.00
  -1   5 -12   69.89   23.30
  -1  -5  12   21.60   15.70
   1  -5 -12   45.10   22.00
  -1   5 -12   53.79   21.60
   1  -5 -12   61.59   21.40
   2   5 -12    8.80   21.10
   2   5 -12   24.00   13.60
  -2  -5 -12   -3.30   19.00
   2  -5  12   -0.20   16.40
  -2  -5 -12   26.90   14.90
   2  -5 -12   11.10   19.10
   2  -5 -12   -2.60   21.40
  -2   5 -12   18.60   23.30
  -2   5 -12    9.30   19.50
  -2  -5  12  -14.20   17.40
  -3  -5 -12   49.99   23.30
   3  -5  12   65.59   24.00
   3   5 -12   73.69   23.80
   3  -5 -12   46.70   26.10
  -3   5 -12   40.50   22.50
   3   5  12   64.69   17.70
  -3  -5  12   79.89   25.90
   4  -5  12   18.30   24.40
   4   5 -12   12.30   24.40
  -4  -5 -12   12.30   19.30
  -4   5 -12   47.00   22.10
   4  -5 -12   11.10   22.40
  -4   5 -12  -14.60   27.50
   4  -5 -12  -41.70   22.50
  -5   5  12   45.70   23.60
   5   5 -12   22.20   25.40
  -5  -5 -12   78.09   26.50
   5  -5  12   37.50   29.00
  -5   5 -12   47.70   29.60
   5  -5 -12   44.80   30.90
  -5  -5  12   67.59   31.80
   0   6 -12  100.29   27.30
   0   6 -12   83.99   23.00
   0  -6 -12  113.49   26.40
   0  -6 -12   81.19   25.30
   0  -6  12  154.48   27.70
  -1  -6 -12  408.86   42.00
   1  -6  12  380.46   35.50
   1   6 -12  379.66   40.20
   1   6 -12  446.96   33.20
  -1  -6 -12  367.96   35.90
  -1   6 -12  406.06   38.90
   1  -6 -12  377.06   40.70
   1   6  12  414.96   35.00
   1  -6 -12  406.56   37.90
  -1   6 -12  411.56   39.30
  -1  -6  12  451.35   37.70
   2   6 -12   16.70   25.70
   2   6 -12   14.80   15.00
  -2  -6 -12    3.30   18.40
   2  -6  12    5.80   19.40
   2   6  12   15.90   15.30
   2  -6 -12   10.60   23.40
  -2   6 -12   24.90   24.10
  -2   6 -12    2.70   20.30
  -2  -6  12   33.00   23.10
  -3   6  12  398.36   38.80
  -3  -6 -12  406.46   41.50
   3  -6  12  373.06   39.20
   3   6 -12  348.47   41.50
   3  -6 -12  326.77   41.40
  -3   6 -12  328.87   45.10
   3   6  12  349.96   31.30
   3  -6 -12  341.47   43.90
  -3  -6  12  304.37   41.50
  -3   6 -12  302.87   37.90
   4   6 -12   14.60   25.20
  -4   6  12   47.20   21.80
  -4  -6 -12    6.00   21.80
   4  -6  12   11.00   26.90
  -4  -6  12    2.30   25.50
  -4   6 -12   14.00   29.70
   4  -6 -12   62.79   27.30
  -5   6  12   61.69   32.70
   5  -6  12  157.48   34.20
  -5  -6 -12  172.98   33.70
  -5   6  12  160.38   34.60
   5   6 -12  141.49   36.30
  -5  -6  12  230.48   41.80
   5  -6 -12  149.79   38.90
  -5   6 -12  138.29   40.00
   0  -7  12   -4.40   20.80
   0   7 -12   14.60   21.70
   0  -7 -12   -7.00   21.10
   0   7 -12   -8.50   19.00
   1   7 -12   28.40   19.30
   1   7 -12   -7.20   22.60
  -1  -7 -12   15.40   17.90
  -1   7  12   19.10   18.10
   1  -7  12   28.20   24.60
  -1   7 -12   67.09   26.80
  -1  -7  12   23.50   26.00
   1  -7 -12   20.40   21.50
   1   7  12   39.50   19.70
  -1   7 -12   -2.60   22.50
   2   7 -12   26.20   24.60
  -2   7  12    4.50   20.70
   2  -7  12   -8.80   23.50
  -2  -7 -12   42.20   25.20
  -2  -7  12    9.00   24.30
   2  -7 -12   45.90   29.00
  -2   7 -12   -8.80   22.70
  -2   7 -12  -33.50   24.20
   2   7  12    8.80   15.80
  -3   7  12   28.20   22.60
   3   7 -12   39.30   25.30
   3  -7  12  -26.30   22.80
  -3  -7 -12   37.30   23.30
   3   7  12    0.60   17.70
   3  -7 -12   22.60   27.20
  -3   7 -12   12.60   29.90
  -3  -7  12    0.50   24.00
  -3   7 -12   19.30   25.00
   4  -7  12    6.40   27.00
  -4   7  12   32.80   25.10
   4   7 -12   21.90   28.30
  -4  -7 -12   57.69   26.10
  -4   7 -12   35.30   29.90
   4  -7 -12   18.90   29.80
  -4  -7  12   57.59   29.60
  -4   7 -12   29.40   25.20
   0   8 -12  160.98   30.70
   0  -8 -12  182.88   35.90
   0   8 -12  112.59   32.20
   0  -8  12  146.49   36.50
   0   8  12  182.58   33.50
  -1  -8 -12  730.73   56.79
   1   8 -12  748.83   57.59
   1   8 -12  702.73   47.40
   1  -8  12  758.12   56.29
  -1   8  12  806.12   55.99
  -1   8 -12  796.72   70.39
  -1  -8  12  793.72   57.69
   1  -8 -12  805.22   60.79
   1   8  12  756.82   51.89
   2  -8  12  240.68   41.10
  -2  -8 -12  312.17   39.40
  -2   8  12  297.27   41.80
   2   8 -12  304.07   43.80
  -2  -8  12  274.27   43.40
  -2   8 -12  292.17   42.60
  -2   8 -12  235.98   39.50
   2  -8 -12  313.17   46.60
   2   8  12  336.77   34.50
   3   8 -12  346.77   46.60
  -3   8  12  378.36   43.10
   3  -8  12  387.16   43.90
  -3  -8 -12  355.66   40.80
   3   8  12  404.66   36.70
  -3   8 -12  264.07   39.00
  -3  -8  12  370.36   49.10
  -3   8 -12  381.56   49.90
   3  -8 -12  441.96   50.09
   0   9  12    3.50   18.30
   0   9 -12   49.99   28.70
   0  -9  12  -17.50   28.00
   0  -9 -12   21.30   24.90
   1  -9  12   12.60   28.20
  -1  -9 -12   33.40   25.80
  -1   9  12   15.90   20.70
   1   9 -12   13.40   26.10
   1  -9 -12   19.40   26.60
  -1  -9  12   36.90   28.10
  -1   9 -12   -1.70   24.80
  -1   9 -12   27.30   27.50
   1   9  12   20.60   18.60
  -2  -9 -12   23.80   23.30
   2   9 -12   50.49   29.10
   2  -9  12    7.30   28.10
  -2   9  12   47.70   29.10
  -2  -9  12   -0.90   29.00
  -2   9 -12    3.40   27.90
   2  -9 -12   50.19   32.70
   2   9  12   27.00   21.40
  -2   9 -12  -12.60   23.20
   0  10  12   59.69   36.00
   0 -10 -12   33.90   30.50
   0  10 -12   27.60   30.50
   0  10 -12  -33.20   42.00
   0   0 -13   11.40   15.90
   0   0 -13    3.80   14.60
  -1   0 -13  247.18   31.70
  -1   0 -13  176.88   29.10
   1   0 -13  194.08   28.10
   1   0 -13  214.18   31.30
   2   0 -13   -9.10   13.40
  -2   0 -13    1.10   13.70
  -2   0  13   20.60    7.20
   2   0 -13   14.30   20.00
  -2   0 -13   34.20   20.10
   3   0 -13   75.49   19.40
  -3   0 -13   61.99   24.10
   3   0 -13  104.59   26.70
  -3   0  13   86.79   15.60
  -3   0 -13   65.69   15.20
  -3   0 -13   59.59   18.20
  -4   0 -13   39.70   15.80
  -4   0  13   69.39   23.50
  -4   0 -13   72.69   19.50
   4   0 -13   29.20   23.80
  -4   0 -13   49.99   25.70
   5   0 -13   30.00   25.20
  -5   0  13    1.70   21.80
  -5   0 -13    4.90   24.90
   0   1 -13   33.50   19.20
   0  -1 -13   23.80   16.40
   0   1 -13    1.30   13.60
   0  -1 -13   18.70   17.10
  -1  -1 -13  576.74   43.50
   1  -1  13  569.34   23.30
  -1  -1 -13  573.64   39.30
   1   1 -13  604.74   42.90
   1   1 -13  625.74   40.50
  -1   1 -13  624.14   44.50
  -1  -1  13  596.54   25.20
   1  -1 -13  575.04   41.50
   1  -1 -13  687.73   43.60
  -1   1 -13  614.84   41.10
  -2  -1 -13   28.20   14.30
   2   1 -13   11.00   19.20
  -2  -1 -13   -8.30   16.40
   2  -1  13   37.50   11.50
  -2  -1  13   37.40   12.20
  -2   1 -13   18.10   21.60
   2  -1 -13   14.60   15.30
  -2   1 -13   22.20   16.30
   2  -1 -13   18.20   19.20
   3   1 -13  506.65   42.10
  -3  -1 -13  542.95   36.70
   3   1 -13  518.45   36.80
  -3  -1 -13  631.44   48.30
   3  -1 -13  555.34   43.80
  -3   1 -13  531.95   37.60
   3  -1 -13  567.34   39.50
  -3   1 -13  503.35   45.80
  -3  -1  13  478.45   32.20
   4   1 -13  -10.20   24.20
  -4  -1 -13  107.29   30.50
   4   1 -13   44.40   22.20
  -4   1  13   60.99   16.90
  -4   1 -13   28.30   26.40
   4  -1 -13   43.50   27.90
   4  -1 -13   14.60   19.60
  -4   1 -13   51.59   17.90
  -4  -1  13   56.29   19.10
   5   1 -13  193.78   35.70
  -5  -1 -13  329.57   41.40
  -5   1 -13  187.18   28.70
  -5  -1  13  206.88   30.90
   5  -1 -13  247.58   34.70
  -5   1 -13  266.67   42.50
   0   2 -13  200.88   30.10
   0  -2 -13  206.48   29.30
   0  -2 -13  142.39   25.60
   0   2 -13  205.58   30.30
   1  -2  13  302.17   24.20
  -1  -2 -13  289.47   30.70
  -1  -2 -13  306.67   33.90
   1   2 -13  258.57   29.40
   1   2 -13  288.17   32.40
  -1   2 -13  304.57   31.10
   1  -2 -13  301.67   32.90
   1  -2 -13  332.17   32.70
  -1   2 -13  298.67   30.90
  -1  -2  13  303.77   21.40
   2  -2  13  146.29   17.60
  -2  -2 -13  176.98   24.30
   2   2 -13  120.59   21.80
  -2  -2 -13  155.38   30.20
   2   2 -13  164.08   28.50
  -2   2 -13  138.79   28.90
  -2   2 -13  164.88   25.60
   2  -2 -13  163.38   27.00
   2  -2 -13  214.88   32.30
  -2  -2  13  145.59   19.10
   3  -2  13  362.66   27.80
   3   2 -13  358.06   29.20
  -3  -2 -13  436.66   42.50
   3   2 -13  378.86   38.90
  -3  -2 -13  410.26   31.80
   3  -2 -13  464.05   36.90
  -3   2 -13  361.66   39.10
   3  -2 -13  366.36   39.00
  -3   2 -13  410.86   33.70
  -3  -2  13  348.87   30.10
  -4  -2 -13   51.39   26.10
   4  -2  13   90.19   20.20
  -4   2 -13   62.19   30.70
   4  -2 -13   32.70   24.10
  -4   2 -13   98.29   21.00
  -4  -2  13   91.39   22.60
   4  -2 -13  113.99   33.80
  -5  -2 -13  139.29   32.30
   5   2 -13  138.39   32.50
   5  -2 -13  150.58   32.70
   5  -2 -13  157.38   45.20
  -5   2 -13   98.59   23.00
  -5  -2  13  114.29   36.30
  -5   2 -13   95.29   32.50
   0  -3 -13   80.59   24.00
   0   3 -13  145.39   29.30
   0  -3  13  101.49   16.90
   0  -3 -13   89.89   21.90
   0   3 -13   87.69   21.40
  -1  -3 -13   58.99   19.20
   1   3 -13   20.00   13.70
   1  -3  13   43.50   14.30
  -1  -3 -13   20.10   19.10
   1   3 -13   33.30   21.00
  -1   3 -13   28.10   21.00
  -1  -3  13    9.10   13.70
   1  -3 -13   25.90   17.80
   1  -3 -13    0.00   17.90
  -1   3 -13   13.10   16.90
   2   3 -13   66.89   18.80
  -2  -3 -13   52.19   16.70
   2   3 -13   24.70   23.00
  -2  -3 -13   55.49   21.70
   2  -3  13   60.29   16.70
   2  -3 -13   51.99   21.50
  -2   3 -13   41.50   18.70
   2  -3 -13   56.19   22.90
  -2  -3  13   60.19   18.70
  -2   3 -13  108.39   26.90
   3   3 -13    9.00   14.90
   3   3 -13   -5.90   21.10
  -3  -3 -13    8.10   14.90
   3  -3  13   20.40   16.80
  -3  -3 -13   15.10   20.60
   3  -3 -13   26.40   20.20
  -3   3 -13   10.10   26.00
  -3  -3  13    3.70   18.00
   3  -3 -13    2.00   21.30
  -3   3 -13    5.70   17.00
   4   3 -13   32.50   23.00
   4  -3  13    7.80   18.90
  -4  -3 -13   53.89   26.20
  -4   3 -13   11.70   26.10
   4  -3 -13   23.80   25.10
  -4  -3  13   33.00   24.10
   4  -3 -13   12.20   21.70
  -4   3 -13   32.60   19.40
   5   3 -13   14.40   24.80
   5  -3  13    7.50   25.30
  -5  -3 -13    9.60   23.50
   5  -3 -13   37.40   24.70
  -5   3 -13    6.60   27.70
  -5  -3  13   29.70   25.70
   0  -4 -13  255.47   33.70
   0  -4 -13  222.38   34.60
   0   4 -13  244.78   28.30
   0  -4  13  256.77   25.60
   0   4 -13  192.98   31.60
   1   4 -13    7.80   21.90
   1   4 -13   37.90   16.70
   1  -4  13   30.70   15.00
  -1  -4 -13   23.60   17.60
  -1  -4 -13   33.40   19.60
   1  -4 -13   68.99   22.00
   1  -4 -13   33.30   21.90
  -1   4 -13   45.30   23.70
  -1   4 -13   53.29   24.00
  -1  -4  13   43.40   17.10
   2  -4  13  248.38   33.60
  -2  -4 -13  221.78   34.00
   2   4 -13  281.17   38.40
  -2  -4 -13  274.37   28.80
   2   4 -13  320.87   28.10
   2  -4 -13  223.78   32.40
  -2  -4  13  293.07   29.60
  -2   4 -13  271.37   38.90
  -2   4 -13  246.08   33.60
   2  -4 -13  287.67   35.00
   3  -4  13   70.19   22.30
  -3  -4 -13   53.39   18.30
  -3  -4  13   15.40   20.10
  -3   4 -13   71.39   24.60
   3  -4 -13   35.90   24.20
  -3   4 -13   69.99   29.30
   3  -4 -13   42.40   24.30
   4  -4  13  197.68   32.30
  -4  -4 -13  242.38   39.30
   4   4 -13  202.88   33.60
   4  -4 -13  172.08   35.10
  -4   4 -13  224.88   43.10
  -4   4 -13  175.68   28.60
  -4  -4  13  252.87   36.40
   5   4 -13   47.70   27.30
  -5  -4 -13   15.20   23.40
   5  -4  13   88.69   29.50
  -5   4 -13   -6.50   31.20
   5  -4 -13  -10.60   24.00
   5  -4 -13   12.80   32.30
  -5  -4  13   21.20   27.90
   0   5 -13    9.00   21.60
   0   5 -13   27.60   18.80
   0  -5 -13   47.20   21.40
   0  -5 -13   21.50   19.30
   0  -5  13   39.90   18.80
   1   5 -13  403.16   40.50
  -1  -5 -13  362.96   35.40
   1  -5  13  294.67   31.00
   1   5 -13  356.76   32.20
  -1  -5 -13  317.07   37.80
  -1   5 -13  433.86   41.30
   1  -5 -13  351.56   40.00
   1  -5 -13  335.77   35.70
  -1  -5  13  318.97   31.90
  -1   5 -13  311.87   36.20
   2  -5  13   56.39   20.30
  -2  -5 -13   60.49   20.10
   2   5 -13   38.60   17.10
  -2  -5 -13   48.40   33.20
  -2  -5  13   57.79   21.10
   2  -5 -13   16.10   20.60
  -2   5 -13   21.10   22.30
  -2   5 -13   27.90   23.90
   2  -5 -13   47.80   35.20
   3  -5  13  147.29   29.50
  -3  -5 -13  173.28   35.80
   3   5 -13  124.29   28.90
   3  -5 -13  130.79   30.60
  -3   5 -13  170.58   29.10
   3   5  13  171.48   26.00
  -3   5 -13  126.49   32.50
   3  -5 -13  188.18   35.70
  -3  -5  13  167.88   30.90
   4   5 -13   15.30   25.20
  -4  -5 -13   35.10   24.40
   4  -5  13   69.49   30.00
   4  -5 -13   82.99   31.00
  -4   5 -13   11.10   28.50
  -4   5 -13   37.00   36.70
  -4  -5  13   72.19   30.40
   4  -5 -13   24.10   28.60
   5  -5  13  109.69   33.60
  -5  -5 -13  153.08   31.90
  -5   5  13  153.08   37.90
   5   5 -13  112.29   34.70
  -5  -5  13  110.29   34.90
   5  -5 -13  180.48   40.70
  -5   5 -13  151.98   38.30
   0   6 -13  720.03   50.39
   0   6 -13  731.33   66.89
   0  -6 -13  631.34   50.09
   0  -6  13  627.34   46.10
   0  -6 -13  626.34   54.29
  -1  -6 -13   54.39   21.20
   1   6 -13   -0.40   23.50
   1   6 -13   18.40   17.20
  -1  -6 -13   49.20   22.60
   1  -6  13   60.69   24.80
   1   6  13   49.20   18.20
  -1  -6  13   75.29   25.70
   1  -6 -13   47.90   24.60
  -1   6 -13   61.69   24.10
   1  -6 -13   56.59   22.60
  -2  -6 -13  338.37   40.10
   2   6 -13  362.56   46.40
   2  -6  13  321.17   38.10
  -2  -6  13  379.76   39.40
   2  -6 -13  411.46   42.30
  -2   6 -13  350.96   45.40
   2  -6 -13  363.96   39.80
   2   6  13  391.06   35.30
  -2   6 -13  414.16   45.00
   3   6 -13   49.90   25.50
  -3  -6 -13   10.20   22.00
  -3   6  13   55.79   23.60
   3  -6 -13   29.10   25.60
   3  -6 -13   44.90   27.70
   3   6  13   31.40   18.30
  -3   6 -13   60.79   29.60
  -3   6 -13    4.20   22.20
   4   6 -13  206.58   38.20
   4  -6  13  145.89   35.20
  -4  -6 -13  161.98   34.20
  -4   6  13  219.08   36.30
  -4   6 -13  139.09   30.80
  -4  -6  13  199.38   41.30
   4  -6 -13  159.88   37.70
  -4   6 -13  147.69   35.40
   0   7  13   22.70   21.80
   0  -7  13   22.00   25.10
   0   7 -13   15.70   22.80
   0  -7 -13   33.30   23.70
   0   7 -13   16.60   23.20
  -1  -7 -13   17.50   23.30
   1   7 -13   22.00   27.00
   1  -7  13   67.09   27.10
  -1   7  13   57.29   24.60
   1   7 -13   42.60   21.60
  -1  -7  13   48.10   27.50
   1  -7 -13   59.19   29.60
   1   7  13   10.30   18.20
  -1   7 -13   39.80   25.50
   2   7 -13   85.29   32.70
  -2   7  13  114.39   29.90
  -2  -7 -13  143.99   31.60
   2  -7  13  114.09   42.00
   2  -7 -13  103.39   31.60
  -2   7 -13  117.99   30.70
  -2   7 -13  107.09   31.40
   2   7  13   76.59   23.30
  -2  -7  13   31.10   26.60
   3  -7  13   39.00   25.00
   3   7 -13   -8.10   26.10
  -3   7  13   -8.50   22.20
  -3  -7 -13   15.40   21.00
  -3   7 -13    3.30   23.80
  -3   7 -13  -33.80   27.40
   3   7  13    4.10   18.50
  -3  -7  13  -19.20   27.80
   3  -7 -13   39.50   29.40
   0   8  13  124.19   28.80
   0   8 -13   43.60   25.60
   0  -8 -13   28.90   25.10
   0   8 -13   70.69   37.20
   0  -8  13   28.40   29.00
  -1   8  13   46.90   26.90
   1   8 -13   -2.20   48.00
   1   8 -13   78.09   30.50
   1  -8  13   53.59   29.40
  -1  -8 -13   26.30   24.40
  -1  -8  13   81.59   32.20
  -1   8 -13   46.10   29.50
  -1   8 -13   25.40   26.20
   1  -8 -13   15.10   24.80
   1   8  13   78.99   24.20
   2   8 -13   60.39   30.80
   2  -8  13   32.80   30.00
  -2   8  13   32.80   26.40
  -2  -8 -13   88.19   28.80
   2   8  13  103.09   24.30
   2  -8 -13   91.09   31.10
  -2   8 -13   74.19   28.90
  -2   8 -13   69.89   33.60
  -2  -8  13   70.79   32.40
   3  -8  13  -31.40   24.90
  -3   8  13   38.90   28.80
  -3  -8 -13  -18.50   26.10
  -3   8 -13   36.80   27.90
  -3  -8  13  -43.80   29.30
   3   8  13  -18.50   23.80
   0   9 -13   -3.10   38.70
   0   9 -13   14.40   29.00
   0  -9 -13  -18.00   36.70
   0  -9  13  -51.39   28.20
   0   9  13    8.00   21.00
   1  -9  13   32.80   32.20
  -1  -9 -13  105.99   45.80
  -1  -9  13   72.69   31.60
  -1   9 -13   54.59   32.70
   1   9  13   86.19   25.60
  -1   9 -13   -2.70   42.40
   0   0 -14   29.30   20.30
   0   0 -14   19.60   19.20
   1   0 -14   11.10   16.10
  -1   0 -14    9.50   16.40
   1   0 -14   -5.50   17.00
  -1   0 -14  -25.70   16.40
   2   0 -14   90.39   20.80
  -2   0 -14  120.39   23.00
  -2   0 -14   95.49   28.10
   2   0 -14   81.69   25.10
  -3   0 -14    4.50   16.00
   3   0 -14    2.30   21.10
   3   0 -14    0.50   16.30
   4   0 -14   62.49   24.50
  -4   0 -14   99.99   30.60
   4   0 -14   98.49   30.20
  -4   0 -14  107.69   21.80
   5   0 -14    5.70   23.30
  -5   0 -14   -4.40   28.00
   0   1 -14  181.58   30.80
   0  -1 -14  203.98   32.50
   0  -1 -14  188.58   29.70
   0   1 -14  209.48   30.90
   1   1 -14    4.40   19.20
   1   1 -14   18.90   16.00
  -1  -1 -14   -5.60   15.70
  -1  -1 -14   36.80   20.60
   1  -1 -14   29.40   18.80
   1  -1 -14   -7.90   19.50
  -1   1 -14    7.30   18.80
  -1   1 -14   54.69   21.80
   2   1 -14  393.26   39.50
  -2  -1 -14  377.66   33.20
  -2  -1 -14  390.36   38.70
   2   1 -14  376.86   34.30
   2  -1 -14  299.47   33.20
  -2   1 -14  310.07   32.70
  -2   1 -14  339.67   39.80
   2  -1 -14  399.46   39.60
   3   1 -14   14.80   17.90
  -3  -1 -14   41.70   37.70
  -3  -1 -14   24.30   16.00
   3   1 -14   69.29   32.80
  -3  -1  14  -15.40   12.90
  -3   1 -14  -13.80   24.10
   3  -1 -14   60.19   19.70
  -3   1 -14  -16.00   15.00
  -4  -1 -14  276.97   43.00
  -4  -1 -14  210.08   25.90
   4   1 -14  236.18   36.90
  -4   1 -14  207.38   27.70
   4  -1 -14  138.59   29.80
  -4  -1  14  181.78   32.50
   4  -1 -14  203.38   37.60
  -4   1 -14  200.48   38.10
   5   1 -14   36.00   28.50
  -5  -1 -14   27.10   24.90
   5  -1 -14   -2.70   24.10
  -5   1 -14  -19.80   24.20
   0  -2 -14  541.65   43.70
   0  -2  14  478.55   24.20
   0   2 -14  535.65   42.30
   0   2 -14  548.55   41.50
   0  -2 -14  477.95   40.50
  -1  -2 -14   20.10   19.90
  -1  -2 -14    9.80   17.90
   1   2 -14   28.70   18.40
   1   2 -14   17.00   20.40
   1  -2 -14    8.40   18.40
  -1   2 -14    6.90   21.50
  -1   2 -14    4.80   19.50
   1  -2 -14  -12.20   17.40
  -2  -2 -14  326.57   42.70
   2   2 -14  296.27   31.10
  -2  -2 -14  377.86   33.60
   2   2 -14  320.87   37.60
   2  -2  14  338.87   22.70
   2  -2 -14  381.76   36.70
   2  -2 -14  350.56   39.30
  -2   2 -14  292.47   41.10
  -2  -2  14  313.47   24.90
  -2   2 -14  297.77   33.80
  -3  -2 -14   31.00   16.60
   3  -2  14   30.00   15.80
  -3  -2 -14    5.30   23.30
  -3  -2  14   36.70   17.60
  -3   2 -14   54.99   22.00
   3  -2 -14   -4.10   21.50
   3  -2 -14   50.29   24.10
  -3   2 -14   31.40   25.60
  -4  -2 -14  175.28   37.00
   4   2 -14  208.28   34.40
  -4  -2 -14  148.49   26.50
  -4   2 -14  224.48   41.60
  -4  -2  14  156.98   25.50
  -4   2 -14  203.48   27.40
   4  -2 -14  162.68   32.80
   4  -2 -14  147.19   32.20
   5   2 -14  -38.30   23.60
  -5  -2 -14   16.00   23.60
   5  -2 -14   33.90   27.40
  -5  -2  14    8.30   35.50
  -5   2 -14   28.30   28.20
   0   3 -14  920.71   54.89
   0   3 -14  931.01   56.99
   0  -3 -14  918.11   56.19
   0  -3 -14  894.91   58.49
  -1  -3 -14   45.90   24.00
   1   3 -14   55.19   24.50
   1   3 -14   64.89   19.40
  -1  -3 -14   69.29   22.80
   1  -3  14   63.89   15.60
  -1  -3  14   89.39   17.90
  -1   3 -14   80.79   24.70
   1  -3 -14   67.49   23.90
  -1   3 -14   86.79   25.20
   1  -3 -14  107.69   28.10
   2   3 -14  701.73   52.09
   2   3 -14  644.54   43.00
  -2  -3 -14  805.52   60.09
  -2  -3 -14  734.23   46.50
   2  -3  14  699.33   39.00
   2  -3 -14  715.83   51.49
  -2   3 -14  792.32   56.99
   2  -3 -14  711.63   55.99
  -2  -3  14  731.43   40.70
  -2   3 -14  735.43   48.50
   3   3 -14   -0.30   26.40
   3   3 -14   14.20   23.50
   3  -3  14   35.60   17.40
  -3  -3 -14   -9.60   19.00
  -3  -3 -14   -3.20   17.30
  -3  -3  14   45.80   19.80
   3  -3 -14   64.99   26.40
   3  -3 -14   42.00   23.40
  -3   3 -14   23.60   21.30
  -3   3 -14    3.60   25.00
  -4  -3 -14  386.96   46.00
   4  -3  14  484.05   38.70
   4   3 -14  422.86   44.20
  -4  -3  14  412.06   38.50
  -4   3 -14  302.57   34.80
   4  -3 -14  484.05   47.20
  -4   3 -14  412.96   48.60
  -5  -3 -14   54.69   28.40
   5   3 -14   -1.90   25.70
  -5   3 -14    6.50   47.60
  -5  -3  14   54.49   30.90
   5  -3 -14  100.79   30.10
   0   4 -14  124.09   31.10
   0  -4 -14  124.79   30.30
   0   4 -14   48.20   22.00
   0  -4 -14  124.29   27.60
   0  -4  14   84.59   20.00
   1   4 -14   36.20   19.20
   1  -4  14   52.59   18.40
  -1  -4 -14   22.60   20.40
  -1  -4 -14   47.80   21.60
   1   4 -14   43.60   24.50
   1  -4 -14   64.89   22.90
   1  -4 -14   25.00   19.60
  -1  -4  14   17.80   17.80
  -1   4 -14    1.30   20.50
  -1   4 -14   18.10   22.80
  -2  -4 -14   79.99   23.20
   2   4 -14    5.10   17.50
  -2  -4 -14   60.59   24.30
   2   4 -14   49.30   25.70
   2  -4  14   65.79   19.80
   2  -4 -14   51.59   23.90
  -2   4 -14   76.19   24.00
   2  -4 -14   65.99   25.10
  -2  -4  14   96.39   20.80
   3  -4  14  -13.10   16.10
  -3  -4 -14   -7.90   20.60
   3   4 -14   36.20   24.00
  -3  -4 -14   -3.20   15.70
  -3   4 -14   -4.10   20.70
  -3   4 -14   21.30   29.20
   3  -4 -14    1.40   24.70
  -3  -4  14   13.30   21.00
   3  -4 -14   -6.40   19.20
  -4  -4 -14   52.79   25.60
   4   4 -14   83.79   29.40
   4  -4  14   59.69   25.10
  -4   4 -14   51.09   30.10
   4  -4 -14   39.80   27.80
  -4   4 -14   68.69   32.70
   4  -4 -14   61.49   26.00
   0  -5 -14   50.29   28.00
   0  -5  14   29.90   19.00
   0   5 -14   55.39   29.10
   0   5 -14   29.10   22.30
   1   5 -14  383.56   42.50
   1  -5  14  364.76   32.70
  -1  -5 -14  342.67   36.00
   1   5 -14  409.86   36.20
  -1  -5 -14  422.66   42.90
  -1  -5  14  419.06   36.10
   1  -5 -14  356.86   39.70
  -1   5 -14  423.06   42.20
  -1   5 -14  447.16   68.49
   1  -5 -14  311.27   39.70
  -2  -5 -14   28.70   24.10
   2  -5  14   32.70   19.10
   2   5 -14  -11.30   19.20
  -2  -5 -14   47.90   19.30
   2   5 -14   44.50   27.20
  -2  -5  14    3.40   20.90
  -2   5 -14   31.20   23.20
   2  -5 -14   18.00   23.70
   2  -5 -14    6.50   22.70
  -2   5 -14   12.40   23.70
   3   5 -14  288.77   40.90
  -3  -5 -14  322.67   40.70
   3  -5  14  332.67   37.10
   3   5  14  300.97   32.50
   3  -5 -14  317.87   43.50
  -3  -5  14  253.87   35.70
  -3   5 -14  279.87   38.10
  -3   5 -14  252.67   43.20
   3  -5 -14  298.87   41.60
   4   5 -14   24.50   28.90
  -4  -5 -14   25.20   22.20
   4  -5  14   20.50   25.90
  -4   5 -14   33.90   30.50
  -4  -5  14   68.49   30.70
  -4   5 -14   32.10   24.40
   4  -5 -14   51.69   33.60
   4  -5 -14    7.30   23.50
   0  -6  14   33.50   23.30
   0   6 -14   44.10   27.00
   0  -6 -14   67.89   24.50
   0   6 -14   55.49   24.70
   0  -6 -14   41.90   27.20
   1   6 -14   45.70   20.40
  -1  -6 -14   13.90   19.90
  -1  -6 -14   42.30   25.00
   1   6 -14   33.50   25.10
   1  -6  14   52.09   24.30
  -1  -6  14   34.80   24.40
  -1   6 -14   17.70   34.20
   1  -6 -14   17.40   22.00
   1  -6 -14   16.60   24.70
  -1   6 -14    8.70   24.40
   1   6  14   -4.30   14.20
   2   6 -14   53.29   28.10
  -2  -6 -14   48.50   25.00
   2  -6  14   17.30   23.00
  -2   6 -14    5.60   26.80
  -2  -6  14   36.70   26.70
   2  -6 -14   31.20   25.30
   2   6  14   27.20   18.10
  -2   6 -14   -5.60   21.70
   2  -6 -14    6.90   24.20
  -3  -6 -14   17.10   25.50
   3   6 -14  -12.20   24.70
  -3   6  14   21.10   21.70
   3  -6  14   22.60   24.60
   3  -6 -14   73.49   27.30
  -3   6 -14   51.49   29.60
  -3   6 -14   71.39   28.10
  -3  -6  14   44.20   29.10
   3   6  14   48.30   22.40
   3  -6 -14   62.99   29.30
  -4   6 -14   13.70   28.30
   0   7 -14    1.50   26.10
   0  -7 -14   21.90   24.70
   0   7  14   38.90   23.20
   0   7 -14  -13.60   34.40
  -1   7  14   71.69   27.00
  -1  -7 -14   19.50   24.00
   1   7 -14   12.00   25.50
   1   7 -14   57.29   28.70
   1  -7  14   68.49   37.90
  -1   7 -14   30.40   27.80
   1  -7 -14   39.90   27.90
  -1   7 -14   62.09   28.30
   1   7  14   48.00   22.80
  -1  -7  14   58.49   38.00
   2   7 -14   19.70   30.00
   2  -7  14    2.80   25.30
  -2   7  14   15.20   24.30
  -2  -7 -14   -5.70   23.50
   2  -7 -14   -5.00   24.60
  -2   7 -14   32.00   26.40
  -2   7 -14    2.90   23.20
  -2  -7  14   11.20   29.50
   2   7  14   14.10   19.10
  -3  -7 -14   13.20   24.80
   3   7 -14   48.80   36.00
   3  -7  14   39.40   28.60
   3   7  14   33.70   22.60
  -3   7 -14    1.60   46.70
  -3   7 -14   51.59   27.10
  -3  -7  14  -29.30   28.20
   3  -7 -14   75.39   41.00
   0  -8  14  -11.40   27.40
   0   8 -14    6.30   25.40
   0  -8 -14  -29.80   22.90
   0   8 -14   24.50   28.70
   0   8  14    5.80   20.50
   1   8 -14   19.80   31.60
   1  -8  14   24.00   28.10
  -1  -8 -14    7.00   23.70
  -1   8  14  -27.60   20.50
   1   8  14   31.90   21.30
  -1  -8  14   32.20   28.40
   1  -8 -14  -23.30   22.40
  -1   8 -14   11.40   30.10
  -1   8 -14   16.40   26.80
   2  -8  14   76.69   31.60
  -2   8  14   42.90   28.90
   2   8 -14    1.20   38.80
  -2  -8  14   52.29   31.70
  -2   8 -14    3.70   34.30
   2   8  14   23.90   22.40
   2  -8 -14   -7.80   29.70
  -2   8 -14   -3.50   28.90
   0   0 -15    4.50   20.00
   0   0 -15    4.30   17.70
   1   0 -15  449.36   41.20
  -1   0 -15  454.25   45.50
   1   0 -15  469.85   40.30
  -1   0 -15  490.65   40.50
  -2   0 -15   15.80   21.10
   2   0 -15   12.50   28.10
   2   0 -15   -5.10   20.40
   3   0 -15  349.67   40.40
   3   0 -15  182.58   31.60
  -3   0 -15  248.38   33.60
  -3   0 -15  278.07   43.70
   4   0 -15   42.20   27.10
  -4   0 -15  -14.10   28.60
  -4   0 -15  -13.40   20.50
   0  -1 -15  158.28   32.10
   0   1 -15  264.47   36.40
   0  -1 -15  170.78   30.00
   0   1 -15  174.48   31.70
   1   1 -15  349.96   35.20
   1   1 -15  310.57   37.10
  -1  -1 -15  308.17   39.40
  -1  -1 -15  326.77   37.60
  -1   1 -15  415.96   39.20
   1  -1 -15  390.26   39.70
   1  -1 -15  389.56   38.10
  -1   1 -15  386.26   41.40
  -2  -1 -15   87.69   32.20
  -2  -1 -15   50.19   22.90
   2   1 -15   56.39   18.90
   2   1 -15   80.59   29.40
   2  -1 -15   76.69   24.80
  -2   1 -15   99.89   44.60
   2  -1 -15   32.40   24.90
  -2   1 -15   37.40   22.20
  -3  -1 -15  191.88   31.30
  -3  -1 -15  176.78   35.00
   3   1 -15  234.78   35.50
   3   1 -15  166.08   26.90
   3  -1 -15  265.07   42.20
  -3   1 -15  285.57   33.00
  -3   1 -15  243.68   39.90
   3  -1 -15  245.48   34.50
  -4  -1 -15   47.80   25.60
   4   1 -15   18.90   27.20
   4  -1 -15   89.79   28.70
   4  -1 -15   77.79   31.70
  -4   1 -15  125.69   33.60
  -4   1 -15   85.69   25.10
   0  -2 -15  -20.70   17.80
   0  -2 -15   11.30   19.80
   0   2 -15   -1.50   21.90
   0   2 -15   -1.60   17.90
   1   2 -15   71.89   23.20
  -1  -2 -15   16.50   23.40
  -1  -2 -15   45.70   22.50
   1   2 -15   38.20   27.20
   1  -2 -15   81.99   28.70
   1  -2 -15    9.40   19.00
  -1   2 -15   43.60   24.00
  -1   2 -15   96.99   28.30
  -2  -2 -15   33.80   20.10
  -2  -2 -15   -4.40   22.40
   2   2 -15   12.30   21.40
   2   2 -15   23.00   18.60
  -2   2 -15    4.80   19.80
   2  -2 -15    0.20   22.40
  -2   2 -15  -10.90   21.90
   2  -2 -15   51.69   25.10
   3   2 -15   35.00   26.30
  -3  -2 -15   50.99   21.00
  -3  -2 -15   40.20   25.40
   3   2 -15   13.70   21.20
  -3   2 -15   14.90   28.30
   3  -2 -15   34.30   25.00
   3  -2 -15  -18.00   22.50
  -3   2 -15   58.69   23.30
  -4  -2 -15    1.10   25.10
   4   2 -15    1.60   25.30
   4  -2 -15  -30.20   24.40
  -4   2 -15   49.99   30.70
  -4   2 -15   16.00   21.60
   0  -3 -15  332.97   62.19
   0   3 -15  277.27   35.00
   0  -3 -15  303.27   36.70
  -1  -3 -15   21.10   24.00
  -1  -3 -15   40.30   22.00
   1   3 -15   -7.50   22.20
   1   3 -15   29.90   20.70
  -1  -3  15   50.49   21.70
   1  -3 -15   -3.20   23.50
   1  -3 -15   -6.80   20.90
  -1   3 -15   21.10   25.00
  -1   3 -15   20.00   22.70
   2   3 -15  179.08   27.00
  -2  -3 -15  259.87   31.90
  -2  -3 -15  247.28   39.80
   2   3 -15  266.07   41.50
  -2   3 -15  179.08   35.30
  -2  -3  15  200.48   29.60
  -2   3 -15  162.98   32.00
   2  -3 -15  209.88   36.10
  -3  -3 -15   32.20   19.30
   3   3 -15   56.89   28.60
  -3  -3 -15   53.99   26.00
   3  -3 -15   19.50   26.00
  -3   3 -15    4.60   26.40
   3  -3 -15   45.40   27.40
   4   3 -15  163.78   33.60
  -4  -3 -15  171.78   36.90
  -4   3 -15  156.78   39.60
  -4   3 -15  132.69   31.60
   4  -3 -15  100.99   33.90
   4  -3 -15  204.78   40.20
   0   4 -15   20.70   21.90
   0  -4 -15   20.50   23.30
   0  -4 -15   38.90   23.30
   0  -4  15    3.90   15.20
   0   4 -15  -38.70   22.50
   1   4 -15   -6.60   20.70
   1   4 -15   41.70   26.10
  -1  -4 -15   -3.20   21.70
   1  -4  15   32.70   16.20
   1  -4 -15   53.29   24.10
  -1   4 -15   12.50   24.10
   1  -4 -15   35.80   25.50
   2   4 -15   14.20   25.10
  -2  -4 -15  -17.00   21.40
  -2  -4 -15  -19.50   21.00
   2  -4  15   25.30   17.60
   2   4 -15    6.30   20.40
  -2   4 -15   28.60   24.30
  -2  -4  15  -13.50   18.60
   2  -4 -15   10.40   22.50
   2  -4 -15   13.70   23.50
  -2   4 -15    3.60   21.30
  -3  -4 -15    9.70   24.00
  -3  -4 -15  -12.60   16.80
   3   4 -15   48.20   26.00
  -3   4 -15  -10.30   23.30
  -3  -4  15   28.20   25.20
   3  -4 -15   35.50   28.40
   3  -4 -15   40.90   24.20
  -3   4 -15    3.40   23.60
   4   4 -15   -8.40   26.30
  -4  -4 -15  -51.59   21.30
   4  -4 -15   44.40   31.90
   4  -4 -15   34.40   26.50
  -4   4 -15  -27.50   24.60
   0  -5 -15  249.38   37.50
   0  -5 -15  214.38   34.20
   0   5 -15  225.78   38.20
   0   5 -15  201.28   34.40
   0  -5  15  177.68   27.90
   1   5 -15   36.50   28.40
   1  -5  15   19.80   20.20
  -1  -5 -15    1.80   23.50
   1   5 -15   75.39   26.30
  -1  -5 -15   18.00   19.80
   1  -5 -15   28.00   23.80
  -1   5 -15   10.90   24.80
   1  -5 -15   63.99   30.10
  -1   5 -15   75.79   29.50
  -1  -5  15   86.29   22.60
   2  -5  15  297.57   34.70
  -2  -5 -15  352.36   46.80
  -2  -5 -15  301.17   35.70
   2   5 -15  379.56   44.20
   2  -5 -15  241.48   40.60
  -2   5 -15  333.77   46.90
   2  -5 -15  349.27   41.50
  -2   5 -15  314.17   38.00
   3   5 -15   17.20   27.00
  -3  -5 -15   14.00   24.60
   3  -5  15  -18.80   24.40
  -3   5 -15   49.40   28.80
   3   5  15   23.30   18.70
   3  -5 -15   -3.90   28.10
  -3   5 -15  -23.20   23.30
   3  -5 -15    0.10   23.00
   0  -6  15   50.69   23.80
   0  -6 -15   72.39   29.50
   0   6 -15  103.39   44.40
   0  -6 -15   87.99   29.80
   0   6 -15   59.09   31.80
  -1  -6 -15   70.69   26.80
   1  -6  15   58.79   25.10
   1   6 -15   52.59   24.00
   1   6 -15   13.80   25.70
  -1  -6 -15   76.19   25.20
  -1  -6  15   51.19   25.60
  -1   6 -15   61.99   29.50
  -1   6 -15   50.49   29.10
   1  -6 -15  115.39   30.90
   1  -6 -15   44.50   28.80
  -2  -6 -15   37.00   24.70
   2  -6  15   14.40   35.80
   2   6 -15  104.79   31.80
  -2   6 -15   81.09   32.00
   2  -6 -15   43.80   26.70
   2   6  15   96.89   25.40
  -2   6 -15   42.60   26.70
   2  -6 -15   50.79   26.40
   3  -6  15   45.40   28.70
   3   6 -15   59.59   47.60
  -3   6  15    4.60   29.10
  -3  -6  15  -26.40   27.40
   3  -6 -15   53.49   30.90
  -3   6 -15  -17.10   25.10
   3  -6 -15   -2.70   37.00
   3   6  15  -17.80   22.10
   0  -7 -15  389.16   47.50
   0   7  15  402.66   42.10
   0   7 -15  393.76   48.50
   0  -7  15  371.76   42.80
   0   7 -15  316.97   42.50
  -1  -7 -15   42.10   29.90
   1  -7  15   -2.20   28.30
  -1   7  15   16.40   23.30
   1   7 -15   12.60   28.60
   1   7  15   27.50   22.40
   1  -7 -15   13.50   26.20
  -1   7 -15  -15.70   28.70
  -1   7 -15   31.10   27.90
  -1  -7  15   16.10   28.20
  -2   7  15  306.47   64.29
   2  -7  15  280.77   41.60
  -2   7 -15  276.37   42.30
   2   7  15  313.37   38.30
  -2  -7  15  256.27   40.00
  -2   7 -15  184.08   39.00
   0   0 -16  700.13   56.09
   0   0 -16  703.43   52.39
   1   0 -16   16.80   22.70
   1   0 -16  -25.40   19.60
  -1   0 -16  -17.80   20.20
   2   0 -16  500.95   44.30
  -2   0 -16  439.36   47.60
   2   0 -16  392.46   44.90
   3   0 -16   14.80   23.90
  -3   0 -16   -7.80   20.60
   3   0 -16  -12.10   22.70
   4   0 -16  307.17   43.70
  -4   0 -16  191.48   52.89
   0   1 -16   68.89   25.20
   0  -1 -16  123.59   30.50
   0  -1 -16  100.99   44.30
   0   1 -16   96.49   26.60
   1   1 -16   25.60   22.40
  -1  -1 -16    4.90   23.00
   1   1 -16    7.50   21.20
   1  -1 -16   21.20   23.70
   1  -1 -16  -12.20   22.90
  -1   1 -16  -16.00   28.50
  -1   1 -16   23.90   25.50
  -2  -1 -16  168.08   36.70
   2   1 -16  119.39   29.40
   2   1 -16  125.59   32.80
   2  -1 -16   38.30   26.40
   2  -1 -16   71.69   31.60
  -2   1 -16   72.09   28.90
  -2   1 -16   77.69   38.90
   3   1 -16   -5.10   23.10
   3   1 -16   -4.80   26.00
  -3  -1 -16  -10.90   25.50
   3  -1 -16   66.49   29.90
  -3   1 -16    5.20   24.70
  -3   1 -16  -29.20   21.90
   4   1 -16   28.40   27.90
  -4  -1 -16   51.19   38.00
   4  -1 -16   50.19   31.10
   0  -2 -16   14.40   24.30
   0   2 -16   20.10   22.30
   0  -2 -16   65.79   25.70
   0   2 -16    6.90   22.50
  -1  -2 -16    5.90   22.90
   1   2 -16   44.80   23.00
   1   2 -16   56.29   27.90
  -1  -2 -16   55.49   25.80
   1  -2 -16   24.20   25.20
  -1   2 -16   59.99   26.50
   1  -2 -16   83.09   26.80
  -1   2 -16   22.40   23.70
  -2  -2 -16   -8.70   26.50
   2   2 -16  -26.00   21.60
  -2  -2 -16   15.40   24.70
   2   2 -16   17.80   27.10
   2  -2 -16  -18.60   22.70
  -2   2 -16   -3.00   24.20
   2  -2 -16  -42.00   22.10
  -2   2 -16   11.90   22.10
   3   2 -16  123.79   31.30
  -3  -2 -16  125.19   34.10
   3  -2 -16   79.29   31.60
   3  -2 -16  105.29   31.40
  -3   2 -16   56.39   24.50
  -3   2 -16  145.79   36.40
   4   2 -16   10.90   27.50
   4  -2 -16  -21.90   34.10
   4  -2 -16   55.99   43.50
   0  -3 -16   23.40   25.20
   0   3 -16   54.79   26.20
   0  -3 -16   38.80   25.10
  -1  -3 -16  381.46   39.10
   1   3 -16  383.26   39.10
   1   3 -16  320.27   44.80
  -1  -3 -16  366.16   43.80
  -1   3 -16  376.46   41.50
  -1   3 -16  398.76   43.60
   1  -3 -16  359.06   42.60
   1  -3 -16  382.26   42.70
  -2  -3 -16   59.79   23.40
   2   3 -16   36.80   27.60
   2   3 -16   10.60   22.00
  -2  -3 -16    7.40   20.90
   2  -3 -16   13.00   24.40
   2  -3 -16  -27.00   22.90
  -2   3 -16  -15.50   26.80
  -2   3 -16   -7.50   21.60
  -3  -3 -16  168.68   29.40
  -3  -3 -16  262.47   43.90
   3   3 -16  122.99   33.70
   3  -3 -16  170.58   34.80
   3  -3 -16  184.88   37.90
  -3   3 -16  198.38   33.30
  -3   3 -16  228.88   39.20
   0   4 -16   96.49   38.40
   0   4 -16   26.80   28.10
   0  -4 -16   91.39   27.60
   0  -4 -16   42.70   27.30
  -1  -4 -16    7.50   19.90
   1   4 -16   24.90   27.20
   1   4 -16   -3.20   23.00
  -1  -4 -16  -15.40   23.30
   1  -4 -16   39.80   27.70
   1  -4 -16   40.50   27.10
  -1   4 -16   38.80   26.30
  -1   4 -16  -17.80   23.50
  -2  -4 -16   35.10   24.00
  -2  -4 -16   -7.40   20.70
   2   4 -16   23.30   28.00
   2   4 -16    7.30   34.30
   2  -4 -16    9.30   23.90
   2  -4 -16   11.40   24.60
  -2   4 -16   33.80   27.10
  -2   4 -16   62.89   30.30
  -3  -4 -16   -0.80   19.20
   3   4 -16   50.79   28.50
  -3  -4 -16   25.40   24.60
   3  -4 -16   32.70   28.10
  -3   4 -16   27.90   25.30
   3  -4 -16   78.09   29.50
  -3   4 -16    1.80   28.00
   0   5 -16   69.99   29.30
   0  -5 -16   50.29   26.70
   0   5 -16   13.30   28.10
   0  -5 -16   24.50   24.70
   1   5 -16  172.88   35.60
  -1  -5 -16  316.47   40.80
   1   5 -16  134.79   32.70
  -1  -5 -16  200.48   38.70
   1  -5 -16  236.18   38.40
  -1   5 -16  235.18   37.20
   1  -5 -16  354.06   42.00
  -1   5 -16  224.28   37.90
  -2  -5 -16   27.40   23.70
   2   5 -16   35.10   28.70
  -2  -5 -16  -19.40   22.40
  -2   5 -16   -4.00   27.60
   2  -5 -16   34.70   26.60
   2  -5 -16   35.10   28.30
  -2   5 -16   38.40   26.20
  -3  -5 -16  166.78   47.60
   3   5 -16  183.58   53.59
  -3   5 -16  245.68   39.10
   3  -5 -16  161.28   43.10
  -3   5 -16  169.48   52.99
   3   5  16  228.38   34.00
   3  -5 -16  172.88   38.00
   0   6 -16   29.40   28.50
   0   6 -16   28.40   28.10
   0  -6 -16   15.60   27.60
   0  -6 -16   14.40   24.10
  -1  -6 -16   45.30   28.20
  -1  -6 -16   20.30   21.90
   1   6 -16  -33.90   26.00
   1   6 -16  -29.90   38.50
   1   6  16   18.30   17.10
   1  -6 -16   14.40   26.50
  -1   6 -16   72.79   30.80
  -1   6 -16   56.79   30.60
   1  -6 -16   42.40   27.00
   2   6 -16   30.80   34.80
  -2  -6 -16   74.39   40.00
   2   6  16   63.19   24.70
  -2   6 -16   66.09   30.70
  -2   6 -16   -6.00   34.80
   2  -6 -16   63.89   33.40
   0   7  16  121.09   45.40
   0   7 -16   17.20   30.90
   0   7 -16  128.79   35.80
   0  -7 -16   47.60   27.50
   0   0 -17  -38.90   19.90
   0   0 -17   17.10   24.90
  -1   0 -17  318.77   41.70
   1   0 -17  329.77   40.70
  -1   0 -17  372.86   45.00
   1   0 -17  332.67   43.30
  -2   0 -17   42.30   23.50
   2   0 -17   17.80   28.60
   2   0 -17   20.60   25.20
  -2   0 -17   49.99   29.70
  -3   0 -17  257.57   43.80
   3   0 -17  184.78   37.50
   3   0 -17  286.27   46.60
  -3   0 -17  176.48   34.20
   0  -1 -17   52.29   25.60
   0   1 -17   23.90   23.60
   0   1 -17    2.70   24.30
   0  -1 -17   39.10   25.70
  -1  -1 -17   35.30   27.10
  -1  -1 -17   28.60   24.60
   1   1 -17   55.39   27.70
   1   1 -17   33.50   26.20
   1  -1 -17    2.80   24.30
  -1   1 -17   36.80   24.10
   1  -1 -17   30.40   25.50
  -1   1 -17   50.49   27.70
  -2  -1 -17   -1.50   23.50
  -2  -1 -17   73.89   26.40
   2   1 -17   23.30   27.90
   2   1 -17   -0.90   30.40
   2  -1 -17   32.40   29.10
  -2   1 -17   -5.80   26.10
   2  -1 -17   69.29   29.70
  -2   1 -17   11.30   23.20
   3   1 -17    1.90   27.80
  -3  -1 -17   44.90   33.40
  -3  -1 -17   -3.10   23.40
  -3   1 -17   48.70   27.00
   3  -1 -17    6.50   30.50
   3  -1 -17   34.70   31.50
  -3   1 -17   98.69   31.00
   0   2 -17   91.09   27.60
   0  -2 -17   36.00   24.80
   0  -2 -17   16.60   25.70
   0   2 -17   64.99   28.00
   1   2 -17  364.06   41.40
  -1  -2 -17  280.77   41.00
   1   2 -17  262.37   39.50
  -1  -2 -17  285.87   40.70
  -1   2 -17  338.87   45.30
  -1   2 -17  283.47   40.00
   1  -2 -17  305.47   45.30
   1  -2 -17  342.47   42.20
  -2  -2 -17   48.90   28.70
   2   2 -17   50.09   27.20
  -2  -2 -17   19.20   25.10
   2  -2 -17   24.10   27.60
  -2   2 -17  -17.00   23.30
   2  -2 -17   59.09   29.80
  -2   2 -17   60.49   28.40
   3   2 -17  149.19   45.70
   3  -2 -17  133.69   36.40
  -3   2 -17  175.38   31.40
   3  -2 -17  243.08   57.59
   0  -3 -17   16.50   24.00
   0   3 -17    0.40   25.80
   0  -3 -17  -29.00   22.00
   0   3 -17  -11.40   23.40
  -1  -3 -17  103.89   27.30
   1   3 -17  130.59   30.30
   1   3 -17  161.78   34.70
  -1  -3 -17  162.58   36.10
   1  -3 -17   76.69   31.70
   1  -3 -17  152.68   35.80
  -1   3 -17   91.29   29.60
  -1   3 -17  194.98   36.20
   2   3 -17   44.80   27.00
  -2  -3 -17   57.59   24.80
   2   3 -17    2.00   38.90
  -2  -3 -17   31.80   28.50
   2  -3 -17   -2.00   25.20
   2  -3 -17    6.50   24.50
  -2   3 -17   10.50   27.90
  -2   3 -17   74.49   26.70
   3   3 -17  182.48   50.29
  -3  -3 -17  111.09   27.20
  -3  -3 -17   44.40   35.70
   3  -3 -17  134.59   37.40
  -3   3 -17   99.09   30.10
  -3   3 -17  161.28   51.59
   3  -3 -17  151.18   36.20
   0  -4 -17  336.77   41.30
   0   4 -17  235.98   38.90
   0   4 -17  309.87   42.10
   0  -4 -17  241.18   42.00
   1   4 -17  161.58   31.70
   1   4 -17  108.39   35.40
  -1  -4 -17  118.19   31.70
  -1  -4 -17  147.49   33.30
   1  -4 -17  178.18   36.60
   1  -4 -17   90.49   31.30
  -1   4 -17   92.29   33.20
  -1   4 -17  104.99   32.50
   2   4 -17  129.59   59.59
  -2  -4 -17  211.58   30.30
  -2   4 -17  194.08   41.20
   2  -4 -17  186.08   36.40
   2  -4 -17  284.47   62.59
  -2   4 -17  151.38   32.60
   0  -5 -17  146.89   39.20
   0   5 -17  130.09   38.40
   0  -5 -17  198.18   37.00
   0   5 -17  189.28   36.40
   1   5 -17   48.60   30.10
  -1  -5 -17   22.00   24.90
   1  -5 -17   45.60   36.40
   1  -5 -17   81.09   45.30
  -1   5 -17   54.49   31.40
  -1   5 -17   99.19   34.40
   0   0 -18  151.48   35.80
   0   0 -18  215.98   37.10
   1   0 -18   -2.40   25.50
   1   0 -18  -32.40   23.80
  -1   0 -18    8.30   22.80
  -1   0 -18    8.70   26.50
  -2   0 -18   98.39   44.00
   2   0 -18  116.29   32.70
  -2   0 -18   85.99   29.40
   2   0 -18   74.89   55.19
   0  -1 -18  112.59   33.40
   0   1 -18  103.19   31.90
   0   1 -18   74.89   30.40
   0  -1 -18   95.89   30.20
   1   1 -18   -9.90   25.50
   1   1 -18   13.40   25.10
  -1  -1 -18    7.10   24.90
  -1  -1 -18   65.79   25.20
  -1   1 -18   28.90   23.80
   1  -1 -18   62.49   32.00
   1  -1 -18   22.30   28.10
  -1   1 -18  -16.60   26.40
   2   1 -18   73.39   32.70
  -2  -1 -18   19.20   23.80
   2   1 -18   61.99   47.30
  -2   1 -18   94.19   44.70
   2  -1 -18   86.09   32.30
   2  -1 -18  101.99   48.70
  -2   1 -18   90.09   29.10
   0   2 -18  170.48   36.80
   0  -2 -18  171.28   37.80
   0  -2 -18  199.78   35.90
   0   2 -18  173.58   36.50
   1   2 -18  167.78   33.50
  -1  -2 -18  206.48   39.40
  -1  -2 -18  174.48   34.70
   1   2 -18  204.88   35.70
  -1   2 -18  151.08   31.90
   1  -2 -18  155.68   36.40
  -1   2 -18  234.88   43.10
   1  -2 -18  185.18   41.00
   2   2 -18  129.09   52.69
   2   2 -18  166.98   39.70
  -2  -2 -18  250.57   63.29
  -2  -2 -18  148.39   32.10
   2  -2 -18  286.97   53.99
  -2   2 -18  162.68   33.40
   2  -2 -18  195.68   39.60
   0   3 -18   46.50   29.60
   0  -3 -18   18.40   25.30
   0  -3 -18   11.20   24.90
   0   3 -18   16.20   28.50
   1   3 -18  -43.20   25.80
  -1  -3 -18  -26.60   22.10
   1  -3 -18   -1.70   24.40
  -1   3 -18   -8.90   26.50
  -1   3 -18   17.30   25.90
   0   4 -18    7.00   31.20
   0   4 -18   26.70   43.90
   0  -4 -18   -4.50   31.00
   0   0 -19   -0.70   48.90
   0   0 -19  -45.20   29.80
   0   0   0    0.00    0.00

_computing_structure_solution     'SHELXT 2014/5 (Sheldrick, 2014)'
;
_shelx_hkl_checksum   44759

# start Validation Reply Form
_vrf_PLAT976_SrSi2PN5
;
PROBLEM: Check Calcd Resid. Dens.  0.97Ang From N3      .      -0.44 eA-3  
RESPONSE: No reasonable assignment of present elements.
;
# end Validation Reply Form
